version 2
run General-0-20230921-09:03:32-4896
attr configname General
attr datetime 20230921-09:03:32
attr experiment General
attr inifile omnetpp.ini
attr iterationvars "$endSim=3.12s, $hosts=15000, $SizeDist=i-hadoop, $p=0.5, $scale=1, $alg=diversity, $diversityTh=2, $pAlg=0.5, $countTh=1, $ThInAgg=2.5e9, $packetIndexAgg=4, $packetIndexCosw=4, $NumOfToRs=10, $cacheToR=300, $cacheAgg=10*300*0.5, $thInCons=2.5e9, $rate=1600000000000, $S=xxx/diversity p = 0.5 th in Agg = 2.5e9 countTh = 1 App A=(Hadoop 2.5e9 t 4) App B (avg(Hadoop) 2.5e9 d 4)/end time = 3.12s CToR = 300/"
attr iterationvarsf endSim=3.12s,hosts=15000,SizeDist=i-hadoop,p=0.5,scale=1,alg=diversity,diversityTh=2,pAlg=0.5,countTh=1,ThInAgg=2.5e9,packetIndexAgg=4,packetIndexCosw=4,NumOfToRs=10,cacheToR=300,cacheAgg=10#2a300#2a0.5,thInCons=2.5e9,rate=1600000000000,S=xxx#2fdiversity_p_=_0.5_th_in_Agg_=_2.5e9_countTh_=_1_App_A=(Hadoop_2.5e9_t_4)_App_B_(avg(Hadoop)_2.5e9_d_4)#2fend_time_=_3.12s_CToR_=_300#2f-
attr measurement "$endSim=3.12s, $hosts=15000, $SizeDist=i-hadoop, $p=0.5, $scale=1, $alg=diversity, $diversityTh=2, $pAlg=0.5, $countTh=1, $ThInAgg=2.5e9, $packetIndexAgg=4, $packetIndexCosw=4, $NumOfToRs=10, $cacheToR=300, $cacheAgg=10*300*0.5, $thInCons=2.5e9, $rate=1600000000000, $S=xxx/diversity p = 0.5 th in Agg = 2.5e9 countTh = 1 App A=(Hadoop 2.5e9 t 4) App B (avg(Hadoop) 2.5e9 d 4)/end time = 3.12s CToR = 300/"
attr network Network
attr processid 4896
attr repetition 0
attr replication #0
attr resultdir results
attr runnumber 0
attr seedset 0
itervar NumOfToRs 10
itervar S "xxx/diversity p = 0.5 th in Agg = 2.5e9 countTh = 1 App A=(Hadoop 2.5e9 t 4) App B (avg(Hadoop) 2.5e9 d 4)/end time = 3.12s CToR = 300/"
itervar SizeDist i-hadoop
itervar ThInAgg 2.5e9
itervar alg diversity
itervar cacheAgg 10*300*0.5
itervar cacheToR 300
itervar countTh 1
itervar diversityTh 2
itervar endSim 3.12s
itervar hosts 15000
itervar p 0.5
itervar pAlg 0.5
itervar packetIndexAgg 4
itervar packetIndexCosw 4
itervar rate 1600000000000
itervar scale 1
itervar thInCons 2.5e9
param Network.estimate_rate_interval 0.5e-3
param Network.policy_size "\"10e6\""
param Network.rack[*].number_of_hosts 15000
param Network.size_distribution "\"size_distribution/i-hadoop.csv\""
param Network.prob_of_app_A 0.5
param Network.scale 1
param Network.algorithm "\"diversity\""
param Network.diversity_th 2
param Network.p_in_algorithm 0.5
param Network.count_th 1
param Network.push_threshold_in_aggregation 2.5e9
param Network.packet_index_for_decision_Agg 4
param Network.packet_index_for_decision_cosw 4
param Network.cache_size "\"2222\""
param Network.NumOfToRs 10
param Network.NumOfAggregation 1
param Network.tor[*].max_cache_size 300
param Network.agg[*].max_cache_size 10*300*0.5
param Network.push_threshold_in_controller_switch 2.5e9
param Network.total_rate_in_tor "\"1600000000000\""
param Network.output_file "\"xxx/diversity p = 0.5 th in Agg = 2.5e9 countTh = 1 App A=(Hadoop 2.5e9 t 4) App B (avg(Hadoop) 2.5e9 d 4)/end time = 3.12s CToR = 300/\""
param Network.run_elephant true
param Network.bandwidth_elephant_threshold "\"2.5e9\""
param Network.run_push true
param Network.record_traffic false
param Network.create_offline_traffic false
param Network.linedelay 0.2
param Network.tor[*].threshold 2
param Network.agg[*].threshold 2
param Network.tor[*].Type 1001
param Network.agg[*].Type 1002
param Network.rack[*].host[*].flow_appearance "\"\""
param Network.rack[*].host[*].flow_size "\"\""
param Network.propagation_time "\"\""
param Network.processing_time_on_data_packet_in_sw "\"\""
param Network.processing_time_on_data_packet_in_controller "\"\""
param Network.insertion_delay "\"\""
param Network.eviction_delay "\"\""
param Network.elephant_table_size "\"\""
param Network.flush_elephant_time "\"\""
param Network.check_for_elephant_time "\"\""
param Network.elephant_sample_rx "\"\""
param Network.already_requested_threshold "\"\""
param Network.cache_percentage "\"\""
param Network.eviction_sample_size "\"\""
param Network.inter_arrival_time_between_packets "\"\""
param Network.inter_arrival_time_between_flowlets "\"\""
param Network.inter_arrival_time_between_flows "\"\""
param Network.large_flow "\"\""
param Network.last_flow_appearance "\"0\""
param Network.rack[*].last_flow_appearance 0

scalar Network.controller "prob_of_app_A: " 0.5
scalar Network.tor[0] "max_cache_size: " 300
scalar Network.tor[0] "push threshold: " 0
scalar Network.tor[1] "max_cache_size: " 300
scalar Network.tor[1] "push threshold: " 0
scalar Network.tor[2] "max_cache_size: " 300
scalar Network.tor[2] "push threshold: " 0
scalar Network.tor[3] "max_cache_size: " 300
scalar Network.tor[3] "push threshold: " 0
scalar Network.tor[4] "max_cache_size: " 300
scalar Network.tor[4] "push threshold: " 0
scalar Network.tor[5] "max_cache_size: " 300
scalar Network.tor[5] "push threshold: " 0
scalar Network.tor[6] "max_cache_size: " 300
scalar Network.tor[6] "push threshold: " 0
scalar Network.tor[7] "max_cache_size: " 300
scalar Network.tor[7] "push threshold: " 0
scalar Network.tor[8] "max_cache_size: " 300
scalar Network.tor[8] "push threshold: " 0
scalar Network.tor[9] "max_cache_size: " 300
scalar Network.tor[9] "push threshold: " 0
scalar Network.agg[0] "max_cache_size: " 1500
scalar Network.agg[0] "push threshold: " 2500000000
scalar Network.dest "run_elephant: " 1
scalar Network.dest "run_push: " 1
scalar Network.dest "cache_size: " 2222
scalar Network.dest "scale: " 1
scalar Network.dest "total_rate_in_tor: " 1600000000000
scalar Network.controller "INTERVAL: " 0.0001
scalar Network.controller "insertion_rate: " 184217733.33333
statistic Network.controller Total_bandwidth_hist
field count 1200
field mean 345.3549
field stddev 22.925706619653
field min 304.68
field max 968.4
field sum 414425.88
field sqrsum 143754188.3856
bin	-inf	0
bin	160	0
bin	180	0
bin	200	0
bin	220	0
bin	240	0
bin	260	0
bin	280	0
bin	300	48
bin	320	397
bin	340	585
bin	360	163
bin	380	5
bin	400	0
bin	420	1
bin	440	0
bin	460	0
bin	480	0
bin	500	0
bin	520	0
bin	540	0
bin	560	0
bin	580	0
bin	600	0
bin	620	0
bin	640	0
bin	660	0
bin	680	0
bin	700	0
bin	720	0
bin	740	0
bin	760	0
bin	780	0
bin	800	0
bin	820	0
bin	840	0
bin	860	0
bin	880	0
bin	900	0
bin	920	0
bin	940	0
bin	960	1
bin	980	0
bin	1000	0
bin	1020	0
bin	1040	0
bin	1060	0
bin	1080	0
bin	1100	0
bin	1120	0
bin	1140	0
statistic Network.rack[0].hub "bandwidth hist"
field count 1200
field mean 309286900000
field stddev 21567661001.08
field min 267000000000
field max 385680000000
field sum 3.7114428e+014
field sqrsum 1.153477954512e+026
bin	-inf	0
bin	258000000000	0
bin	260000000000	0
bin	262000000000	0
bin	264000000000	0
bin	266000000000	1
bin	268000000000	1
bin	270000000000	3
bin	272000000000	4
bin	274000000000	9
bin	276000000000	21
bin	278000000000	25
bin	280000000000	18
bin	282000000000	37
bin	284000000000	40
bin	286000000000	54
bin	288000000000	49
bin	290000000000	51
bin	292000000000	55
bin	294000000000	45
bin	296000000000	40
bin	298000000000	30
bin	300000000000	40
bin	302000000000	35
bin	304000000000	32
bin	306000000000	36
bin	308000000000	37
bin	310000000000	40
bin	312000000000	25
bin	314000000000	38
bin	316000000000	22
bin	318000000000	41
bin	320000000000	30
bin	322000000000	31
bin	324000000000	33
bin	326000000000	24
bin	328000000000	19
bin	330000000000	32
bin	332000000000	20
bin	334000000000	19
bin	336000000000	30
bin	338000000000	22
bin	340000000000	19
bin	342000000000	16
bin	344000000000	15
bin	346000000000	14
bin	348000000000	8
bin	350000000000	8
bin	352000000000	4
bin	354000000000	1
bin	356000000000	5
bin	358000000000	1
bin	360000000000	3
bin	362000000000	1
bin	364000000000	4
bin	366000000000	1
bin	368000000000	1
bin	370000000000	2
bin	372000000000	1
bin	374000000000	2
bin	376000000000	1
bin	378000000000	3
bin	380000000000	0
bin	382000000000	0
bin	384000000000	1
bin	386000000000	0
bin	388000000000	0
bin	390000000000	0
bin	392000000000	0
bin	394000000000	0
bin	396000000000	0
bin	398000000000	0
bin	400000000000	0
bin	402000000000	0
bin	404000000000	0
bin	406000000000	0
statistic Network.rack[1].hub "bandwidth hist"
field count 1200
field mean 304501300000
field stddev 17745779034.409
field min 261000000000
field max 383400000000
field sum 3.6540156e+014
field sqrsum 1.116428303376e+026
bin	-inf	0
bin	261000000000	1
bin	263000000000	1
bin	265000000000	2
bin	267000000000	1
bin	269000000000	2
bin	271000000000	8
bin	273000000000	13
bin	275000000000	12
bin	277000000000	21
bin	279000000000	21
bin	281000000000	33
bin	283000000000	28
bin	285000000000	37
bin	287000000000	56
bin	289000000000	32
bin	291000000000	50
bin	293000000000	47
bin	295000000000	59
bin	297000000000	60
bin	299000000000	77
bin	301000000000	56
bin	303000000000	56
bin	305000000000	52
bin	307000000000	51
bin	309000000000	56
bin	311000000000	37
bin	313000000000	44
bin	315000000000	42
bin	317000000000	29
bin	319000000000	25
bin	321000000000	22
bin	323000000000	19
bin	325000000000	15
bin	327000000000	22
bin	329000000000	15
bin	331000000000	12
bin	333000000000	13
bin	335000000000	10
bin	337000000000	8
bin	339000000000	10
bin	341000000000	4
bin	343000000000	4
bin	345000000000	7
bin	347000000000	7
bin	349000000000	5
bin	351000000000	2
bin	353000000000	2
bin	355000000000	3
bin	357000000000	2
bin	359000000000	4
bin	361000000000	1
bin	363000000000	1
bin	365000000000	0
bin	367000000000	0
bin	369000000000	1
bin	371000000000	1
bin	373000000000	0
bin	375000000000	0
bin	377000000000	0
bin	379000000000	0
bin	381000000000	0
bin	383000000000	1
bin	385000000000	0
statistic Network.rack[2].hub "bandwidth hist"
field count 1200
field mean 316145900000
field stddev 18000344650.303
field min 265440000000
field max 374040000000
field sum 3.7937508e+014
field sqrsum 1.203263669808e+026
bin	-inf	0
bin	264000000000	1
bin	266000000000	0
bin	268000000000	0
bin	270000000000	1
bin	272000000000	1
bin	274000000000	1
bin	276000000000	3
bin	278000000000	5
bin	280000000000	7
bin	282000000000	9
bin	284000000000	12
bin	286000000000	20
bin	288000000000	17
bin	290000000000	25
bin	292000000000	20
bin	294000000000	29
bin	296000000000	47
bin	298000000000	30
bin	300000000000	50
bin	302000000000	40
bin	304000000000	46
bin	306000000000	59
bin	308000000000	52
bin	310000000000	40
bin	312000000000	54
bin	314000000000	60
bin	316000000000	53
bin	318000000000	42
bin	320000000000	59
bin	322000000000	32
bin	324000000000	41
bin	326000000000	47
bin	328000000000	32
bin	330000000000	29
bin	332000000000	35
bin	334000000000	19
bin	336000000000	27
bin	338000000000	22
bin	340000000000	21
bin	342000000000	22
bin	344000000000	21
bin	346000000000	14
bin	348000000000	13
bin	350000000000	6
bin	352000000000	11
bin	354000000000	5
bin	356000000000	4
bin	358000000000	5
bin	360000000000	1
bin	362000000000	3
bin	364000000000	1
bin	366000000000	2
bin	368000000000	3
bin	370000000000	0
bin	372000000000	0
bin	374000000000	1
bin	376000000000	0
bin	378000000000	0
bin	380000000000	0
bin	382000000000	0
bin	384000000000	0
bin	386000000000	0
bin	388000000000	0
bin	390000000000	0
bin	392000000000	0
bin	394000000000	0
bin	396000000000	0
statistic Network.rack[3].hub "bandwidth hist"
field count 1200
field mean 321865700000
field stddev 14792598091.903
field min 284640000000
field max 372720000000
field sum 3.8623884e+014
field sqrsum 1.245794009328e+026
bin	-inf	0
bin	280000000000	0
bin	282000000000	0
bin	284000000000	1
bin	286000000000	4
bin	288000000000	4
bin	290000000000	1
bin	292000000000	4
bin	294000000000	7
bin	296000000000	17
bin	298000000000	22
bin	300000000000	26
bin	302000000000	33
bin	304000000000	44
bin	306000000000	47
bin	308000000000	46
bin	310000000000	64
bin	312000000000	70
bin	314000000000	69
bin	316000000000	65
bin	318000000000	62
bin	320000000000	64
bin	322000000000	57
bin	324000000000	59
bin	326000000000	64
bin	328000000000	54
bin	330000000000	37
bin	332000000000	33
bin	334000000000	36
bin	336000000000	37
bin	338000000000	29
bin	340000000000	24
bin	342000000000	21
bin	344000000000	17
bin	346000000000	12
bin	348000000000	16
bin	350000000000	11
bin	352000000000	10
bin	354000000000	7
bin	356000000000	9
bin	358000000000	5
bin	360000000000	3
bin	362000000000	1
bin	364000000000	4
bin	366000000000	2
bin	368000000000	1
bin	370000000000	0
bin	372000000000	1
bin	374000000000	0
bin	376000000000	0
bin	378000000000	0
statistic Network.rack[4].hub "bandwidth hist"
field count 1200
field mean 319287100000
field stddev 17381404851.707
field min 274320000000
field max 380400000000
field sum 3.8314452e+014
field sqrsum 1.2269533644e+026
bin	-inf	0
bin	267000000000	0
bin	269000000000	0
bin	271000000000	0
bin	273000000000	2
bin	275000000000	0
bin	277000000000	2
bin	279000000000	0
bin	281000000000	3
bin	283000000000	6
bin	285000000000	9
bin	287000000000	3
bin	289000000000	11
bin	291000000000	18
bin	293000000000	21
bin	295000000000	33
bin	297000000000	30
bin	299000000000	33
bin	301000000000	49
bin	303000000000	55
bin	305000000000	54
bin	307000000000	49
bin	309000000000	51
bin	311000000000	56
bin	313000000000	40
bin	315000000000	47
bin	317000000000	55
bin	319000000000	44
bin	321000000000	44
bin	323000000000	46
bin	325000000000	49
bin	327000000000	44
bin	329000000000	33
bin	331000000000	32
bin	333000000000	35
bin	335000000000	41
bin	337000000000	31
bin	339000000000	32
bin	341000000000	30
bin	343000000000	24
bin	345000000000	17
bin	347000000000	13
bin	349000000000	11
bin	351000000000	9
bin	353000000000	9
bin	355000000000	5
bin	357000000000	5
bin	359000000000	3
bin	361000000000	5
bin	363000000000	3
bin	365000000000	2
bin	367000000000	4
bin	369000000000	1
bin	371000000000	0
bin	373000000000	0
bin	375000000000	0
bin	377000000000	0
bin	379000000000	1
bin	381000000000	0
statistic Network.rack[5].hub "bandwidth hist"
field count 1200
field mean 324512900000
field stddev 20094524557.393
field min 283920000000
field max 418920000000
field sum 3.8941548e+014
field sqrsum 1.268544908304e+026
bin	-inf	0
bin	270000000000	0
bin	272000000000	0
bin	274000000000	0
bin	276000000000	0
bin	278000000000	0
bin	280000000000	0
bin	282000000000	1
bin	284000000000	2
bin	286000000000	3
bin	288000000000	6
bin	290000000000	6
bin	292000000000	10
bin	294000000000	16
bin	296000000000	32
bin	298000000000	22
bin	300000000000	37
bin	302000000000	36
bin	304000000000	32
bin	306000000000	47
bin	308000000000	38
bin	310000000000	31
bin	312000000000	45
bin	314000000000	66
bin	316000000000	43
bin	318000000000	56
bin	320000000000	59
bin	322000000000	59
bin	324000000000	58
bin	326000000000	44
bin	328000000000	52
bin	330000000000	47
bin	332000000000	47
bin	334000000000	39
bin	336000000000	33
bin	338000000000	23
bin	340000000000	25
bin	342000000000	28
bin	344000000000	11
bin	346000000000	11
bin	348000000000	15
bin	350000000000	15
bin	352000000000	10
bin	354000000000	12
bin	356000000000	12
bin	358000000000	8
bin	360000000000	3
bin	362000000000	6
bin	364000000000	6
bin	366000000000	4
bin	368000000000	7
bin	370000000000	2
bin	372000000000	1
bin	374000000000	3
bin	376000000000	3
bin	378000000000	3
bin	380000000000	5
bin	382000000000	2
bin	384000000000	3
bin	386000000000	2
bin	388000000000	1
bin	390000000000	1
bin	392000000000	2
bin	394000000000	0
bin	396000000000	0
bin	398000000000	1
bin	400000000000	1
bin	402000000000	2
bin	404000000000	3
bin	406000000000	0
bin	408000000000	0
bin	410000000000	1
bin	412000000000	0
bin	414000000000	0
bin	416000000000	0
bin	418000000000	1
bin	420000000000	0
statistic Network.rack[6].hub "bandwidth hist"
field count 1200
field mean 328385100000
field stddev 17702291280.721
field min 287520000000
field max 439320000000
field sum 3.9406212e+014
field sqrsum 1.297798606512e+026
bin	-inf	0
bin	286000000000	1
bin	288000000000	0
bin	290000000000	0
bin	292000000000	3
bin	294000000000	2
bin	296000000000	8
bin	298000000000	9
bin	300000000000	11
bin	302000000000	14
bin	304000000000	20
bin	306000000000	30
bin	308000000000	21
bin	310000000000	38
bin	312000000000	43
bin	314000000000	65
bin	316000000000	62
bin	318000000000	63
bin	320000000000	58
bin	322000000000	75
bin	324000000000	65
bin	326000000000	81
bin	328000000000	58
bin	330000000000	53
bin	332000000000	54
bin	334000000000	52
bin	336000000000	42
bin	338000000000	43
bin	340000000000	31
bin	342000000000	32
bin	344000000000	21
bin	346000000000	29
bin	348000000000	15
bin	350000000000	14
bin	352000000000	16
bin	354000000000	10
bin	356000000000	9
bin	358000000000	7
bin	360000000000	6
bin	362000000000	5
bin	364000000000	4
bin	366000000000	1
bin	368000000000	1
bin	370000000000	1
bin	372000000000	2
bin	374000000000	1
bin	376000000000	3
bin	378000000000	0
bin	380000000000	0
bin	382000000000	1
bin	384000000000	3
bin	386000000000	3
bin	388000000000	1
bin	390000000000	0
bin	392000000000	1
bin	394000000000	1
bin	396000000000	0
bin	398000000000	1
bin	400000000000	0
bin	402000000000	0
bin	404000000000	1
bin	406000000000	1
bin	408000000000	0
bin	410000000000	0
bin	412000000000	0
bin	414000000000	0
bin	416000000000	1
bin	418000000000	0
bin	420000000000	1
bin	422000000000	1
bin	424000000000	2
bin	426000000000	0
bin	428000000000	0
bin	430000000000	1
bin	432000000000	0
bin	434000000000	1
bin	436000000000	0
bin	438000000000	1
bin	440000000000	0
statistic Network.rack[7].hub "bandwidth hist"
field count 1200
field mean 333905800000
field stddev 19806751808.612
field min 283200000000
field max 402240000000
field sum 4.0068696e+014
field sqrsum 1.342620765216e+026
bin	-inf	0
bin	282000000000	1
bin	284000000000	2
bin	286000000000	3
bin	288000000000	2
bin	290000000000	2
bin	292000000000	3
bin	294000000000	9
bin	296000000000	7
bin	298000000000	16
bin	300000000000	14
bin	302000000000	20
bin	304000000000	9
bin	306000000000	20
bin	308000000000	24
bin	310000000000	30
bin	312000000000	31
bin	314000000000	29
bin	316000000000	31
bin	318000000000	44
bin	320000000000	38
bin	322000000000	50
bin	324000000000	45
bin	326000000000	49
bin	328000000000	58
bin	330000000000	52
bin	332000000000	50
bin	334000000000	26
bin	336000000000	55
bin	338000000000	45
bin	340000000000	46
bin	342000000000	36
bin	344000000000	33
bin	346000000000	28
bin	348000000000	35
bin	350000000000	29
bin	352000000000	27
bin	354000000000	27
bin	356000000000	26
bin	358000000000	21
bin	360000000000	18
bin	362000000000	19
bin	364000000000	17
bin	366000000000	15
bin	368000000000	10
bin	370000000000	9
bin	372000000000	10
bin	374000000000	7
bin	376000000000	2
bin	378000000000	6
bin	380000000000	4
bin	382000000000	2
bin	384000000000	1
bin	386000000000	1
bin	388000000000	1
bin	390000000000	1
bin	392000000000	2
bin	394000000000	0
bin	396000000000	0
bin	398000000000	0
bin	400000000000	1
bin	402000000000	1
bin	404000000000	0
statistic Network.rack[8].hub "bandwidth hist"
field count 1200
field mean 328445300000
field stddev 20657312015.203
field min 271680000000
field max 391440000000
field sum 3.9413436e+014
field sqrsum 1.299632208336e+026
bin	-inf	0
bin	270000000000	1
bin	272000000000	0
bin	274000000000	2
bin	276000000000	4
bin	278000000000	1
bin	280000000000	1
bin	282000000000	5
bin	284000000000	7
bin	286000000000	10
bin	288000000000	7
bin	290000000000	12
bin	292000000000	12
bin	294000000000	12
bin	296000000000	33
bin	298000000000	16
bin	300000000000	20
bin	302000000000	19
bin	304000000000	31
bin	306000000000	20
bin	308000000000	28
bin	310000000000	31
bin	312000000000	37
bin	314000000000	42
bin	316000000000	27
bin	318000000000	30
bin	320000000000	32
bin	322000000000	32
bin	324000000000	33
bin	326000000000	44
bin	328000000000	44
bin	330000000000	50
bin	332000000000	49
bin	334000000000	57
bin	336000000000	41
bin	338000000000	52
bin	340000000000	37
bin	342000000000	44
bin	344000000000	33
bin	346000000000	40
bin	348000000000	37
bin	350000000000	20
bin	352000000000	27
bin	354000000000	19
bin	356000000000	17
bin	358000000000	15
bin	360000000000	14
bin	362000000000	14
bin	364000000000	7
bin	366000000000	4
bin	368000000000	8
bin	370000000000	8
bin	372000000000	4
bin	374000000000	3
bin	376000000000	1
bin	378000000000	0
bin	380000000000	4
bin	382000000000	0
bin	384000000000	0
bin	386000000000	1
bin	388000000000	0
bin	390000000000	1
bin	392000000000	0
statistic Network.rack[9].hub "bandwidth hist"
field count 1200
field mean 335715700000
field stddev 21159641731.568
field min 273240000000
field max 393240000000
field sum 4.0285884e+014
field sqrsum 1.357828662672e+026
bin	-inf	0
bin	272000000000	1
bin	274000000000	0
bin	276000000000	0
bin	278000000000	0
bin	280000000000	1
bin	282000000000	3
bin	284000000000	3
bin	286000000000	2
bin	288000000000	2
bin	290000000000	10
bin	292000000000	6
bin	294000000000	7
bin	296000000000	4
bin	298000000000	13
bin	300000000000	12
bin	302000000000	18
bin	304000000000	5
bin	306000000000	25
bin	308000000000	26
bin	310000000000	27
bin	312000000000	19
bin	314000000000	28
bin	316000000000	20
bin	318000000000	45
bin	320000000000	36
bin	322000000000	30
bin	324000000000	51
bin	326000000000	48
bin	328000000000	33
bin	330000000000	35
bin	332000000000	57
bin	334000000000	45
bin	336000000000	53
bin	338000000000	53
bin	340000000000	42
bin	342000000000	33
bin	344000000000	44
bin	346000000000	40
bin	348000000000	30
bin	350000000000	37
bin	352000000000	35
bin	354000000000	22
bin	356000000000	23
bin	358000000000	14
bin	360000000000	17
bin	362000000000	16
bin	364000000000	22
bin	366000000000	19
bin	368000000000	11
bin	370000000000	12
bin	372000000000	11
bin	374000000000	13
bin	376000000000	8
bin	378000000000	11
bin	380000000000	1
bin	382000000000	5
bin	384000000000	5
bin	386000000000	2
bin	388000000000	4
bin	390000000000	2
bin	392000000000	3
bin	394000000000	0
scalar Network.tor[0] "Bandwidth: " 0
statistic Network.tor[0] "flow count"
field count 1200
field mean 637.38333333333
field stddev 17.267933870975
field min 588
field max 696
field sum 764860
field sqrsum 487866536
bin	-inf	0
bin	586	0
bin	588	2
bin	590	1
bin	592	0
bin	594	1
bin	596	0
bin	598	2
bin	600	6
bin	602	6
bin	604	3
bin	606	16
bin	608	18
bin	610	14
bin	612	21
bin	614	28
bin	616	41
bin	618	39
bin	620	46
bin	622	33
bin	624	38
bin	626	42
bin	628	57
bin	630	40
bin	632	55
bin	634	58
bin	636	52
bin	638	46
bin	640	62
bin	642	54
bin	644	38
bin	646	51
bin	648	44
bin	650	32
bin	652	27
bin	654	34
bin	656	33
bin	658	21
bin	660	31
bin	662	26
bin	664	16
bin	666	12
bin	668	12
bin	670	10
bin	672	5
bin	674	9
bin	676	5
bin	678	3
bin	680	2
bin	682	4
bin	684	1
bin	686	2
bin	688	0
bin	690	0
bin	692	0
bin	694	0
bin	696	1
bin	698	0
statistic Network.tor[0] cache_occupancy
field count 1200
field mean 300
field stddev 0
field min 300
field max 300
field sum 360000
field sqrsum 108000000
bin	-inf	0
bin	299	0
bin	300	1200
bin	301	0
statistic Network.tor[0] activity_time_of_a_rule_A
field count 233513
field mean 7.3060042760236e-005
field stddev 0.00036575428083252
field min 0
field max 0.021404505362
field sum 17.060469765071
field sqrsum 0.032484785251571
bin	-inf	0
bin	-0.5	0
bin	-0.48	0
bin	-0.46	0
bin	-0.44	0
bin	-0.42	0
bin	-0.4	0
bin	-0.38	0
bin	-0.36	0
bin	-0.34	0
bin	-0.32	0
bin	-0.3	0
bin	-0.28	0
bin	-0.26	0
bin	-0.24	0
bin	-0.22	0
bin	-0.2	0
bin	-0.18	0
bin	-0.16	0
bin	-0.14	0
bin	-0.12	0
bin	-0.1	0
bin	-0.08	0
bin	-0.06	0
bin	-0.04	0
bin	-0.02	0
bin	0	233511
bin	0.02	2
bin	0.04	0
bin	0.06	0
bin	0.08	0
bin	0.1	0
bin	0.12	0
bin	0.14	0
bin	0.16	0
bin	0.18	0
bin	0.2	0
bin	0.22	0
bin	0.24	0
bin	0.26	0
bin	0.28	0
bin	0.3	0
bin	0.32	0
bin	0.34	0
bin	0.36	0
bin	0.38	0
bin	0.4	0
bin	0.42	0
bin	0.44	0
bin	0.46	0
bin	0.48	0
bin	0.5	0
statistic Network.tor[0] activity_time_of_a_rule_B
field count 1725185
field mean 3.614254502207e-006
field stddev 3.3235441072903e-005
field min 0
field max 0.00486253655
field sum 6.2352576533901
field sqrsum 0.0019281646406526
bin	-inf	0
bin	-0.5	0
bin	-0.48	0
bin	-0.46	0
bin	-0.44	0
bin	-0.42	0
bin	-0.4	0
bin	-0.38	0
bin	-0.36	0
bin	-0.34	0
bin	-0.32	0
bin	-0.3	0
bin	-0.28	0
bin	-0.26	0
bin	-0.24	0
bin	-0.22	0
bin	-0.2	0
bin	-0.18	0
bin	-0.16	0
bin	-0.14	0
bin	-0.12	0
bin	-0.1	0
bin	-0.08	0
bin	-0.06	0
bin	-0.04	0
bin	-0.02	0
bin	0	1725185
bin	0.02	0
bin	0.04	0
bin	0.06	0
bin	0.08	0
bin	0.1	0
bin	0.12	0
bin	0.14	0
bin	0.16	0
bin	0.18	0
bin	0.2	0
bin	0.22	0
bin	0.24	0
bin	0.26	0
bin	0.28	0
bin	0.3	0
bin	0.32	0
bin	0.34	0
bin	0.36	0
bin	0.38	0
bin	0.4	0
bin	0.42	0
bin	0.44	0
bin	0.46	0
bin	0.48	0
bin	0.5	0
statistic Network.tor[0] bandwidth_histogram
field count 1200
field mean 309.2843
field stddev 21.573479259252
field min 265.68
field max 386.16
field sum 371141.16
field sqrsum 115346166.4656
bin	-inf	0
bin	260	0
bin	262	0
bin	264	1
bin	266	0
bin	268	1
bin	270	2
bin	272	6
bin	274	7
bin	276	28
bin	278	16
bin	280	23
bin	282	35
bin	284	42
bin	286	50
bin	288	48
bin	290	57
bin	292	46
bin	294	55
bin	296	35
bin	298	34
bin	300	40
bin	302	34
bin	304	26
bin	306	40
bin	308	36
bin	310	39
bin	312	34
bin	314	30
bin	316	18
bin	318	42
bin	320	32
bin	322	28
bin	324	37
bin	326	23
bin	328	26
bin	330	30
bin	332	16
bin	334	24
bin	336	22
bin	338	23
bin	340	23
bin	342	17
bin	344	15
bin	346	9
bin	348	9
bin	350	10
bin	352	4
bin	354	1
bin	356	3
bin	358	3
bin	360	1
bin	362	5
bin	364	2
bin	366	1
bin	368	2
bin	370	1
bin	372	0
bin	374	4
bin	376	1
bin	378	1
bin	380	1
bin	382	0
bin	384	0
bin	386	1
bin	388	0
bin	390	0
bin	392	0
bin	394	0
bin	396	0
bin	398	0
bin	400	0
bin	402	0
scalar Network.tor[0] "cache_content_by_app: " 0.68085106382979
scalar Network.tor[1] "Bandwidth: " 0
statistic Network.tor[1] "flow count"
field count 1200
field mean 635.575
field stddev 20.932180292789
field min 582
field max 691
field sum 762690
field sqrsum 485272046
bin	-inf	0
bin	581	2
bin	583	1
bin	585	2
bin	587	2
bin	589	2
bin	591	1
bin	593	6
bin	595	9
bin	597	9
bin	599	15
bin	601	16
bin	603	14
bin	605	11
bin	607	21
bin	609	24
bin	611	28
bin	613	21
bin	615	39
bin	617	25
bin	619	40
bin	621	33
bin	623	46
bin	625	49
bin	627	53
bin	629	51
bin	631	49
bin	633	46
bin	635	43
bin	637	46
bin	639	51
bin	641	42
bin	643	30
bin	645	31
bin	647	32
bin	649	27
bin	651	22
bin	653	24
bin	655	21
bin	657	23
bin	659	23
bin	661	22
bin	663	15
bin	665	18
bin	667	19
bin	669	20
bin	671	15
bin	673	8
bin	675	15
bin	677	15
bin	679	5
bin	681	4
bin	683	4
bin	685	7
bin	687	2
bin	689	0
bin	691	1
bin	693	0
bin	695	0
bin	697	0
bin	699	0
bin	701	0
bin	703	0
bin	705	0
statistic Network.tor[1] cache_occupancy
field count 1200
field mean 300
field stddev 0
field min 300
field max 300
field sum 360000
field sqrsum 108000000
bin	-inf	0
bin	299	0
bin	300	1200
bin	301	0
statistic Network.tor[1] activity_time_of_a_rule_A
field count 226851
field mean 6.9996411295753e-005
field stddev 0.00041693457681102
field min 0
field max 0.029699375174
field sum 15.878755898853
field sqrsum 0.040545798946873
bin	-inf	0
bin	-0.5	0
bin	-0.48	0
bin	-0.46	0
bin	-0.44	0
bin	-0.42	0
bin	-0.4	0
bin	-0.38	0
bin	-0.36	0
bin	-0.34	0
bin	-0.32	0
bin	-0.3	0
bin	-0.28	0
bin	-0.26	0
bin	-0.24	0
bin	-0.22	0
bin	-0.2	0
bin	-0.18	0
bin	-0.16	0
bin	-0.14	0
bin	-0.12	0
bin	-0.1	0
bin	-0.08	0
bin	-0.06	0
bin	-0.04	0
bin	-0.02	0
bin	0	226847
bin	0.02	4
bin	0.04	0
bin	0.06	0
bin	0.08	0
bin	0.1	0
bin	0.12	0
bin	0.14	0
bin	0.16	0
bin	0.18	0
bin	0.2	0
bin	0.22	0
bin	0.24	0
bin	0.26	0
bin	0.28	0
bin	0.3	0
bin	0.32	0
bin	0.34	0
bin	0.36	0
bin	0.38	0
bin	0.4	0
bin	0.42	0
bin	0.44	0
bin	0.46	0
bin	0.48	0
bin	0.5	0
statistic Network.tor[1] activity_time_of_a_rule_B
field count 1722754
field mean 4.2400935022203e-006
field stddev 4.0134929507634e-005
field min 0
field max 0.005253459745
field sum 7.304638041324
field sqrsum 0.0028060045298132
bin	-inf	0
bin	-0.5	0
bin	-0.48	0
bin	-0.46	0
bin	-0.44	0
bin	-0.42	0
bin	-0.4	0
bin	-0.38	0
bin	-0.36	0
bin	-0.34	0
bin	-0.32	0
bin	-0.3	0
bin	-0.28	0
bin	-0.26	0
bin	-0.24	0
bin	-0.22	0
bin	-0.2	0
bin	-0.18	0
bin	-0.16	0
bin	-0.14	0
bin	-0.12	0
bin	-0.1	0
bin	-0.08	0
bin	-0.06	0
bin	-0.04	0
bin	-0.02	0
bin	0	1722754
bin	0.02	0
bin	0.04	0
bin	0.06	0
bin	0.08	0
bin	0.1	0
bin	0.12	0
bin	0.14	0
bin	0.16	0
bin	0.18	0
bin	0.2	0
bin	0.22	0
bin	0.24	0
bin	0.26	0
bin	0.28	0
bin	0.3	0
bin	0.32	0
bin	0.34	0
bin	0.36	0
bin	0.38	0
bin	0.4	0
bin	0.42	0
bin	0.44	0
bin	0.46	0
bin	0.48	0
bin	0.5	0
statistic Network.tor[1] bandwidth_histogram
field count 1200
field mean 304.4981
field stddev 17.744597957892
field min 261.24
field max 381.36
field sum 365397.72
field sqrsum 111640441.5216
bin	-inf	0
bin	260	1
bin	262	1
bin	264	0
bin	266	2
bin	268	1
bin	270	7
bin	272	10
bin	274	10
bin	276	19
bin	278	22
bin	280	27
bin	282	31
bin	284	36
bin	286	44
bin	288	47
bin	290	30
bin	292	43
bin	294	64
bin	296	65
bin	298	65
bin	300	67
bin	302	55
bin	304	53
bin	306	53
bin	308	48
bin	310	50
bin	312	37
bin	314	48
bin	316	35
bin	318	31
bin	320	20
bin	322	22
bin	324	12
bin	326	20
bin	328	18
bin	330	16
bin	332	9
bin	334	13
bin	336	7
bin	338	12
bin	340	5
bin	342	6
bin	344	5
bin	346	5
bin	348	6
bin	350	4
bin	352	4
bin	354	1
bin	356	3
bin	358	3
bin	360	3
bin	362	1
bin	364	0
bin	366	0
bin	368	0
bin	370	2
bin	372	0
bin	374	0
bin	376	0
bin	378	0
bin	380	1
bin	382	0
scalar Network.tor[1] "cache_content_by_app: " 0.6234309623431
scalar Network.tor[2] "Bandwidth: " 0
statistic Network.tor[2] "flow count"
field count 1200
field mean 636.39083333333
field stddev 19.041057854254
field min 587
field max 699
field sum 763669
field sqrsum 486426663
bin	-inf	0
bin	568	0
bin	570	0
bin	572	0
bin	574	0
bin	576	0
bin	578	0
bin	580	0
bin	582	0
bin	584	0
bin	586	1
bin	588	1
bin	590	3
bin	592	3
bin	594	4
bin	596	4
bin	598	5
bin	600	7
bin	602	12
bin	604	14
bin	606	15
bin	608	18
bin	610	25
bin	612	39
bin	614	32
bin	616	27
bin	618	44
bin	620	27
bin	622	41
bin	624	38
bin	626	36
bin	628	54
bin	630	55
bin	632	52
bin	634	37
bin	636	41
bin	638	42
bin	640	47
bin	642	47
bin	644	34
bin	646	44
bin	648	44
bin	650	43
bin	652	33
bin	654	24
bin	656	35
bin	658	19
bin	660	31
bin	662	17
bin	664	18
bin	666	17
bin	668	15
bin	670	14
bin	672	10
bin	674	10
bin	676	6
bin	678	6
bin	680	3
bin	682	2
bin	684	2
bin	686	0
bin	688	0
bin	690	1
bin	692	0
bin	694	0
bin	696	0
bin	698	1
bin	700	0
statistic Network.tor[2] cache_occupancy
field count 1200
field mean 300
field stddev 0
field min 300
field max 300
field sum 360000
field sqrsum 108000000
bin	-inf	0
bin	299	0
bin	300	1200
bin	301	0
statistic Network.tor[2] activity_time_of_a_rule_A
field count 230488
field mean 7.1551781290961e-005
field stddev 0.00039468126585691
field min 0
field max 0.023117134325
field sum 16.491826966191
field sqrsum 0.037083740566297
bin	-inf	0
bin	-0.5	0
bin	-0.48	0
bin	-0.46	0
bin	-0.44	0
bin	-0.42	0
bin	-0.4	0
bin	-0.38	0
bin	-0.36	0
bin	-0.34	0
bin	-0.32	0
bin	-0.3	0
bin	-0.28	0
bin	-0.26	0
bin	-0.24	0
bin	-0.22	0
bin	-0.2	0
bin	-0.18	0
bin	-0.16	0
bin	-0.14	0
bin	-0.12	0
bin	-0.1	0
bin	-0.08	0
bin	-0.06	0
bin	-0.04	0
bin	-0.02	0
bin	0	230484
bin	0.02	4
bin	0.04	0
bin	0.06	0
bin	0.08	0
bin	0.1	0
bin	0.12	0
bin	0.14	0
bin	0.16	0
bin	0.18	0
bin	0.2	0
bin	0.22	0
bin	0.24	0
bin	0.26	0
bin	0.28	0
bin	0.3	0
bin	0.32	0
bin	0.34	0
bin	0.36	0
bin	0.38	0
bin	0.4	0
bin	0.42	0
bin	0.44	0
bin	0.46	0
bin	0.48	0
bin	0.5	0
statistic Network.tor[2] activity_time_of_a_rule_B
field count 1723874
field mean 3.9001346150792e-006
field stddev 3.6239646515599e-005
field min 0
field max 0.004561213905
field sum 6.723340659435
field sqrsum 0.0022902049958017
bin	-inf	0
bin	-0.5	0
bin	-0.48	0
bin	-0.46	0
bin	-0.44	0
bin	-0.42	0
bin	-0.4	0
bin	-0.38	0
bin	-0.36	0
bin	-0.34	0
bin	-0.32	0
bin	-0.3	0
bin	-0.28	0
bin	-0.26	0
bin	-0.24	0
bin	-0.22	0
bin	-0.2	0
bin	-0.18	0
bin	-0.16	0
bin	-0.14	0
bin	-0.12	0
bin	-0.1	0
bin	-0.08	0
bin	-0.06	0
bin	-0.04	0
bin	-0.02	0
bin	0	1723874
bin	0.02	0
bin	0.04	0
bin	0.06	0
bin	0.08	0
bin	0.1	0
bin	0.12	0
bin	0.14	0
bin	0.16	0
bin	0.18	0
bin	0.2	0
bin	0.22	0
bin	0.24	0
bin	0.26	0
bin	0.28	0
bin	0.3	0
bin	0.32	0
bin	0.34	0
bin	0.36	0
bin	0.38	0
bin	0.4	0
bin	0.42	0
bin	0.44	0
bin	0.46	0
bin	0.48	0
bin	0.5	0
statistic Network.tor[2] bandwidth_histogram
field count 1200
field mean 316.1424
field stddev 17.995334014085
field min 266.52
field max 372.36
field sum 379370.88
field sqrsum 120323495.1168
bin	-inf	0
bin	266	1
bin	268	0
bin	270	1
bin	272	1
bin	274	1
bin	276	4
bin	278	3
bin	280	9
bin	282	6
bin	284	13
bin	286	18
bin	288	21
bin	290	23
bin	292	26
bin	294	24
bin	296	49
bin	298	29
bin	300	45
bin	302	40
bin	304	57
bin	306	54
bin	308	48
bin	310	38
bin	312	53
bin	314	67
bin	316	47
bin	318	48
bin	320	55
bin	322	31
bin	324	45
bin	326	44
bin	328	34
bin	330	29
bin	332	32
bin	334	27
bin	336	25
bin	338	18
bin	340	24
bin	342	16
bin	344	27
bin	346	10
bin	348	13
bin	350	9
bin	352	11
bin	354	5
bin	356	4
bin	358	3
bin	360	4
bin	362	1
bin	364	1
bin	366	3
bin	368	1
bin	370	1
bin	372	1
bin	374	0
bin	376	0
bin	378	0
bin	380	0
bin	382	0
bin	384	0
bin	386	0
bin	388	0
bin	390	0
bin	392	0
bin	394	0
scalar Network.tor[2] "cache_content_by_app: " 0.64406779661017
scalar Network.tor[3] "Bandwidth: " 0
statistic Network.tor[3] "flow count"
field count 1200
field mean 636.92166666667
field stddev 23.967461899705
field min 578
field max 703
field sum 764306
field sqrsum 487491804
bin	-inf	0
bin	578	1
bin	580	1
bin	582	1
bin	584	2
bin	586	1
bin	588	4
bin	590	4
bin	592	4
bin	594	9
bin	596	10
bin	598	11
bin	600	17
bin	602	24
bin	604	19
bin	606	27
bin	608	24
bin	610	29
bin	612	34
bin	614	40
bin	616	43
bin	618	27
bin	620	38
bin	622	30
bin	624	36
bin	626	35
bin	628	37
bin	630	34
bin	632	39
bin	634	23
bin	636	30
bin	638	27
bin	640	27
bin	642	29
bin	644	26
bin	646	36
bin	648	36
bin	650	24
bin	652	25
bin	654	30
bin	656	26
bin	658	24
bin	660	34
bin	662	30
bin	664	28
bin	666	30
bin	668	26
bin	670	19
bin	672	13
bin	674	10
bin	676	12
bin	678	9
bin	680	7
bin	682	9
bin	684	5
bin	686	7
bin	688	7
bin	690	1
bin	692	3
bin	694	3
bin	696	1
bin	698	0
bin	700	1
bin	702	1
bin	704	0
bin	706	0
bin	708	0
bin	710	0
bin	712	0
bin	714	0
bin	716	0
bin	718	0
bin	720	0
bin	722	0
statistic Network.tor[3] cache_occupancy
field count 1200
field mean 300
field stddev 0
field min 300
field max 300
field sum 360000
field sqrsum 108000000
bin	-inf	0
bin	299	0
bin	300	1200
bin	301	0
statistic Network.tor[3] activity_time_of_a_rule_A
field count 231076
field mean 7.2218184125678e-005
field stddev 0.0004154235005939
field min 0
field max 0.052449539664
field sum 16.687889115025
field sqrsum 0.041083326499497
bin	-inf	0
bin	-0.5	0
bin	-0.48	0
bin	-0.46	0
bin	-0.44	0
bin	-0.42	0
bin	-0.4	0
bin	-0.38	0
bin	-0.36	0
bin	-0.34	0
bin	-0.32	0
bin	-0.3	0
bin	-0.28	0
bin	-0.26	0
bin	-0.24	0
bin	-0.22	0
bin	-0.2	0
bin	-0.18	0
bin	-0.16	0
bin	-0.14	0
bin	-0.12	0
bin	-0.1	0
bin	-0.08	0
bin	-0.06	0
bin	-0.04	0
bin	-0.02	0
bin	0	231073
bin	0.02	2
bin	0.04	1
bin	0.06	0
bin	0.08	0
bin	0.1	0
bin	0.12	0
bin	0.14	0
bin	0.16	0
bin	0.18	0
bin	0.2	0
bin	0.22	0
bin	0.24	0
bin	0.26	0
bin	0.28	0
bin	0.3	0
bin	0.32	0
bin	0.34	0
bin	0.36	0
bin	0.38	0
bin	0.4	0
bin	0.42	0
bin	0.44	0
bin	0.46	0
bin	0.48	0
bin	0.5	0
statistic Network.tor[3] activity_time_of_a_rule_B
field count 1724871
field mean 3.8068319838047e-006
field stddev 3.5063569766493e-005
field min 0
field max 0.005997483516
field sum 6.5662940907372
field sqrsum 0.0021456449695772
bin	-inf	0
bin	-0.5	0
bin	-0.48	0
bin	-0.46	0
bin	-0.44	0
bin	-0.42	0
bin	-0.4	0
bin	-0.38	0
bin	-0.36	0
bin	-0.34	0
bin	-0.32	0
bin	-0.3	0
bin	-0.28	0
bin	-0.26	0
bin	-0.24	0
bin	-0.22	0
bin	-0.2	0
bin	-0.18	0
bin	-0.16	0
bin	-0.14	0
bin	-0.12	0
bin	-0.1	0
bin	-0.08	0
bin	-0.06	0
bin	-0.04	0
bin	-0.02	0
bin	0	1724871
bin	0.02	0
bin	0.04	0
bin	0.06	0
bin	0.08	0
bin	0.1	0
bin	0.12	0
bin	0.14	0
bin	0.16	0
bin	0.18	0
bin	0.2	0
bin	0.22	0
bin	0.24	0
bin	0.26	0
bin	0.28	0
bin	0.3	0
bin	0.32	0
bin	0.34	0
bin	0.36	0
bin	0.38	0
bin	0.4	0
bin	0.42	0
bin	0.44	0
bin	0.46	0
bin	0.48	0
bin	0.5	0
statistic Network.tor[3] bandwidth_histogram
field count 1200
field mean 321.8629
field stddev 14.809132528999
field min 284.64
field max 372.6
field sum 386235.48
field sqrsum 124577824.8528
bin	-inf	0
bin	280	0
bin	282	0
bin	284	1
bin	286	3
bin	288	3
bin	290	5
bin	292	2
bin	294	10
bin	296	14
bin	298	18
bin	300	33
bin	302	29
bin	304	46
bin	306	45
bin	308	45
bin	310	60
bin	312	78
bin	314	66
bin	316	64
bin	318	66
bin	320	62
bin	322	57
bin	324	62
bin	326	66
bin	328	46
bin	330	40
bin	332	36
bin	334	40
bin	336	32
bin	338	23
bin	340	23
bin	342	24
bin	344	19
bin	346	13
bin	348	14
bin	350	15
bin	352	7
bin	354	10
bin	356	5
bin	358	5
bin	360	5
bin	362	2
bin	364	2
bin	366	2
bin	368	0
bin	370	1
bin	372	1
bin	374	0
bin	376	0
bin	378	0
scalar Network.tor[3] "cache_content_by_app: " 0.65546218487395
scalar Network.tor[4] "Bandwidth: " 0
statistic Network.tor[4] "flow count"
field count 1200
field mean 636.1225
field stddev 18.519133141887
field min 588
field max 695
field sum 763347
field sqrsum 485993409
bin	-inf	0
bin	572	0
bin	574	0
bin	576	0
bin	578	0
bin	580	0
bin	582	0
bin	584	0
bin	586	0
bin	588	1
bin	590	1
bin	592	2
bin	594	3
bin	596	4
bin	598	4
bin	600	3
bin	602	7
bin	604	11
bin	606	10
bin	608	22
bin	610	24
bin	612	24
bin	614	30
bin	616	39
bin	618	40
bin	620	50
bin	622	53
bin	624	42
bin	626	48
bin	628	43
bin	630	56
bin	632	58
bin	634	40
bin	636	64
bin	638	47
bin	640	52
bin	642	44
bin	644	31
bin	646	48
bin	648	32
bin	650	28
bin	652	27
bin	654	14
bin	656	24
bin	658	24
bin	660	23
bin	662	17
bin	664	19
bin	666	20
bin	668	11
bin	670	11
bin	672	4
bin	674	12
bin	676	8
bin	678	9
bin	680	4
bin	682	5
bin	684	2
bin	686	2
bin	688	1
bin	690	1
bin	692	0
bin	694	1
bin	696	0
statistic Network.tor[4] cache_occupancy
field count 1200
field mean 300
field stddev 0
field min 300
field max 300
field sum 360000
field sqrsum 108000000
bin	-inf	0
bin	299	0
bin	300	1200
bin	301	0
statistic Network.tor[4] activity_time_of_a_rule_A
field count 229940
field mean 7.1235379930342e-005
field stddev 0.00039422650246275
field min 0
field max 0.019770860036
field sum 16.379863261183
field sqrsum 0.036902688602091
bin	-inf	0
bin	-0.5	0
bin	-0.48	0
bin	-0.46	0
bin	-0.44	0
bin	-0.42	0
bin	-0.4	0
bin	-0.38	0
bin	-0.36	0
bin	-0.34	0
bin	-0.32	0
bin	-0.3	0
bin	-0.28	0
bin	-0.26	0
bin	-0.24	0
bin	-0.22	0
bin	-0.2	0
bin	-0.18	0
bin	-0.16	0
bin	-0.14	0
bin	-0.12	0
bin	-0.1	0
bin	-0.08	0
bin	-0.06	0
bin	-0.04	0
bin	-0.02	0
bin	0	229940
bin	0.02	0
bin	0.04	0
bin	0.06	0
bin	0.08	0
bin	0.1	0
bin	0.12	0
bin	0.14	0
bin	0.16	0
bin	0.18	0
bin	0.2	0
bin	0.22	0
bin	0.24	0
bin	0.26	0
bin	0.28	0
bin	0.3	0
bin	0.32	0
bin	0.34	0
bin	0.36	0
bin	0.38	0
bin	0.4	0
bin	0.42	0
bin	0.44	0
bin	0.46	0
bin	0.48	0
bin	0.5	0
statistic Network.tor[4] activity_time_of_a_rule_B
field count 1725482
field mean 3.9937341182922e-006
field stddev 3.6456727731046e-005
field min 0
field max 0.00419266763
field sum 6.891116333899
field sqrsum 0.0023208459997233
bin	-inf	0
bin	-0.5	0
bin	-0.48	0
bin	-0.46	0
bin	-0.44	0
bin	-0.42	0
bin	-0.4	0
bin	-0.38	0
bin	-0.36	0
bin	-0.34	0
bin	-0.32	0
bin	-0.3	0
bin	-0.28	0
bin	-0.26	0
bin	-0.24	0
bin	-0.22	0
bin	-0.2	0
bin	-0.18	0
bin	-0.16	0
bin	-0.14	0
bin	-0.12	0
bin	-0.1	0
bin	-0.08	0
bin	-0.06	0
bin	-0.04	0
bin	-0.02	0
bin	0	1725482
bin	0.02	0
bin	0.04	0
bin	0.06	0
bin	0.08	0
bin	0.1	0
bin	0.12	0
bin	0.14	0
bin	0.16	0
bin	0.18	0
bin	0.2	0
bin	0.22	0
bin	0.24	0
bin	0.26	0
bin	0.28	0
bin	0.3	0
bin	0.32	0
bin	0.34	0
bin	0.36	0
bin	0.38	0
bin	0.4	0
bin	0.42	0
bin	0.44	0
bin	0.46	0
bin	0.48	0
bin	0.5	0
statistic Network.tor[4] bandwidth_histogram
field count 1200
field mean 319.2842
field stddev 17.393455453234
field min 275.28
field max 379.2
field sum 383141.04
field sqrsum 122693616.6624
bin	-inf	0
bin	268	0
bin	270	0
bin	272	0
bin	274	2
bin	276	1
bin	278	1
bin	280	4
bin	282	4
bin	284	4
bin	286	8
bin	288	4
bin	290	15
bin	292	21
bin	294	24
bin	296	32
bin	298	38
bin	300	43
bin	302	52
bin	304	43
bin	306	54
bin	308	56
bin	310	53
bin	312	46
bin	314	48
bin	316	48
bin	318	48
bin	320	44
bin	322	43
bin	324	47
bin	326	49
bin	328	41
bin	330	30
bin	332	36
bin	334	38
bin	336	39
bin	338	22
bin	340	32
bin	342	25
bin	344	26
bin	346	11
bin	348	16
bin	350	9
bin	352	9
bin	354	7
bin	356	5
bin	358	4
bin	360	4
bin	362	6
bin	364	2
bin	366	2
bin	368	3
bin	370	0
bin	372	0
bin	374	0
bin	376	0
bin	378	1
bin	380	0
scalar Network.tor[4] "cache_content_by_app: " 0.63157894736842
scalar Network.tor[5] "Bandwidth: " 0
statistic Network.tor[5] "flow count"
field count 1200
field mean 649.54
field stddev 17.953653613263
field min 601
field max 700
field sum 779448
field sqrsum 506669132
bin	-inf	0
bin	600	2
bin	602	1
bin	604	1
bin	606	5
bin	608	5
bin	610	2
bin	612	13
bin	614	9
bin	616	18
bin	618	15
bin	620	14
bin	622	16
bin	624	25
bin	626	23
bin	628	26
bin	630	26
bin	632	25
bin	634	35
bin	636	38
bin	638	40
bin	640	54
bin	642	50
bin	644	49
bin	646	46
bin	648	47
bin	650	47
bin	652	43
bin	654	60
bin	656	44
bin	658	59
bin	660	41
bin	662	46
bin	664	48
bin	666	46
bin	668	27
bin	670	30
bin	672	21
bin	674	19
bin	676	18
bin	678	9
bin	680	20
bin	682	4
bin	684	6
bin	686	10
bin	688	8
bin	690	4
bin	692	2
bin	694	0
bin	696	2
bin	698	0
bin	700	1
bin	702	0
statistic Network.tor[5] cache_occupancy
field count 1200
field mean 300
field stddev 0
field min 300
field max 300
field sum 360000
field sqrsum 108000000
bin	-inf	0
bin	299	0
bin	300	1200
bin	301	0
statistic Network.tor[5] activity_time_of_a_rule_A
field count 231160
field mean 7.1506873128625e-005
field stddev 0.00038209179905534
field min 0
field max 0.017742358028
field sum 16.529528792413
field sqrsum 0.034929834998093
bin	-inf	0
bin	-0.5	0
bin	-0.48	0
bin	-0.46	0
bin	-0.44	0
bin	-0.42	0
bin	-0.4	0
bin	-0.38	0
bin	-0.36	0
bin	-0.34	0
bin	-0.32	0
bin	-0.3	0
bin	-0.28	0
bin	-0.26	0
bin	-0.24	0
bin	-0.22	0
bin	-0.2	0
bin	-0.18	0
bin	-0.16	0
bin	-0.14	0
bin	-0.12	0
bin	-0.1	0
bin	-0.08	0
bin	-0.06	0
bin	-0.04	0
bin	-0.02	0
bin	0	231160
bin	0.02	0
bin	0.04	0
bin	0.06	0
bin	0.08	0
bin	0.1	0
bin	0.12	0
bin	0.14	0
bin	0.16	0
bin	0.18	0
bin	0.2	0
bin	0.22	0
bin	0.24	0
bin	0.26	0
bin	0.28	0
bin	0.3	0
bin	0.32	0
bin	0.34	0
bin	0.36	0
bin	0.38	0
bin	0.4	0
bin	0.42	0
bin	0.44	0
bin	0.46	0
bin	0.48	0
bin	0.5	0
statistic Network.tor[5] activity_time_of_a_rule_B
field count 1725933
field mean 3.8603922374194e-006
field stddev 3.4684361902505e-005
field min 0
field max 0.00339717638
field sum 6.662778355506
field sqrsum 0.0021020256954738
bin	-inf	0
bin	-0.5	0
bin	-0.48	0
bin	-0.46	0
bin	-0.44	0
bin	-0.42	0
bin	-0.4	0
bin	-0.38	0
bin	-0.36	0
bin	-0.34	0
bin	-0.32	0
bin	-0.3	0
bin	-0.28	0
bin	-0.26	0
bin	-0.24	0
bin	-0.22	0
bin	-0.2	0
bin	-0.18	0
bin	-0.16	0
bin	-0.14	0
bin	-0.12	0
bin	-0.1	0
bin	-0.08	0
bin	-0.06	0
bin	-0.04	0
bin	-0.02	0
bin	0	1725933
bin	0.02	0
bin	0.04	0
bin	0.06	0
bin	0.08	0
bin	0.1	0
bin	0.12	0
bin	0.14	0
bin	0.16	0
bin	0.18	0
bin	0.2	0
bin	0.22	0
bin	0.24	0
bin	0.26	0
bin	0.28	0
bin	0.3	0
bin	0.32	0
bin	0.34	0
bin	0.36	0
bin	0.38	0
bin	0.4	0
bin	0.42	0
bin	0.44	0
bin	0.46	0
bin	0.48	0
bin	0.5	0
statistic Network.tor[5] bandwidth_histogram
field count 1200
field mean 324.5093
field stddev 20.083165108559
field min 285
field max 418.32
field sum 389411.16
field sqrsum 126851139.8352
bin	-inf	0
bin	272	0
bin	274	0
bin	276	0
bin	278	0
bin	280	0
bin	282	0
bin	284	3
bin	286	3
bin	288	7
bin	290	7
bin	292	10
bin	294	19
bin	296	24
bin	298	27
bin	300	40
bin	302	35
bin	304	28
bin	306	45
bin	308	39
bin	310	31
bin	312	46
bin	314	53
bin	316	59
bin	318	58
bin	320	56
bin	322	59
bin	324	57
bin	326	48
bin	328	47
bin	330	46
bin	332	44
bin	334	44
bin	336	30
bin	338	29
bin	340	23
bin	342	29
bin	344	9
bin	346	9
bin	348	14
bin	350	17
bin	352	8
bin	354	15
bin	356	11
bin	358	8
bin	360	3
bin	362	8
bin	364	5
bin	366	2
bin	368	7
bin	370	2
bin	372	3
bin	374	2
bin	376	4
bin	378	2
bin	380	4
bin	382	3
bin	384	4
bin	386	1
bin	388	1
bin	390	1
bin	392	2
bin	394	0
bin	396	0
bin	398	0
bin	400	3
bin	402	3
bin	404	0
bin	406	1
bin	408	0
bin	410	1
bin	412	0
bin	414	0
bin	416	0
bin	418	1
bin	420	0
scalar Network.tor[5] "cache_content_by_app: " 0.64377682403433
scalar Network.tor[6] "Bandwidth: " 0
statistic Network.tor[6] "flow count"
field count 1200
field mean 640.10083333333
field stddev 18.241974692253
field min 585
field max 692
field sum 768121
field sqrsum 492073883
bin	-inf	0
bin	584	1
bin	586	0
bin	588	0
bin	590	0
bin	592	2
bin	594	0
bin	596	4
bin	598	6
bin	600	5
bin	602	7
bin	604	14
bin	606	12
bin	608	13
bin	610	19
bin	612	29
bin	614	22
bin	616	22
bin	618	34
bin	620	31
bin	622	26
bin	624	27
bin	626	30
bin	628	37
bin	630	34
bin	632	42
bin	634	41
bin	636	46
bin	638	41
bin	640	47
bin	642	57
bin	644	55
bin	646	40
bin	648	58
bin	650	57
bin	652	43
bin	654	44
bin	656	46
bin	658	37
bin	660	37
bin	662	23
bin	664	28
bin	666	13
bin	668	23
bin	670	10
bin	672	9
bin	674	9
bin	676	7
bin	678	3
bin	680	2
bin	682	3
bin	684	1
bin	686	1
bin	688	1
bin	690	0
bin	692	1
bin	694	0
bin	696	0
bin	698	0
bin	700	0
bin	702	0
bin	704	0
bin	706	0
bin	708	0
bin	710	0
statistic Network.tor[6] cache_occupancy
field count 1200
field mean 300
field stddev 0
field min 300
field max 300
field sum 360000
field sqrsum 108000000
bin	-inf	0
bin	299	0
bin	300	1200
bin	301	0
statistic Network.tor[6] activity_time_of_a_rule_A
field count 232378
field mean 7.3173207608069e-005
field stddev 0.00039298445354544
field min 0
field max 0.018154851801
field sum 17.003843637548
field sqrsum 0.03713178157595
bin	-inf	0
bin	-0.5	0
bin	-0.48	0
bin	-0.46	0
bin	-0.44	0
bin	-0.42	0
bin	-0.4	0
bin	-0.38	0
bin	-0.36	0
bin	-0.34	0
bin	-0.32	0
bin	-0.3	0
bin	-0.28	0
bin	-0.26	0
bin	-0.24	0
bin	-0.22	0
bin	-0.2	0
bin	-0.18	0
bin	-0.16	0
bin	-0.14	0
bin	-0.12	0
bin	-0.1	0
bin	-0.08	0
bin	-0.06	0
bin	-0.04	0
bin	-0.02	0
bin	0	232378
bin	0.02	0
bin	0.04	0
bin	0.06	0
bin	0.08	0
bin	0.1	0
bin	0.12	0
bin	0.14	0
bin	0.16	0
bin	0.18	0
bin	0.2	0
bin	0.22	0
bin	0.24	0
bin	0.26	0
bin	0.28	0
bin	0.3	0
bin	0.32	0
bin	0.34	0
bin	0.36	0
bin	0.38	0
bin	0.4	0
bin	0.42	0
bin	0.44	0
bin	0.46	0
bin	0.48	0
bin	0.5	0
statistic Network.tor[6] activity_time_of_a_rule_B
field count 1726471
field mean 3.6841124606245e-006
field stddev 3.3405665399047e-005
field min 0
field max 0.003682758133
field sum 6.3605133240069
field sqrsum 0.0019500671552587
bin	-inf	0
bin	-0.5	0
bin	-0.48	0
bin	-0.46	0
bin	-0.44	0
bin	-0.42	0
bin	-0.4	0
bin	-0.38	0
bin	-0.36	0
bin	-0.34	0
bin	-0.32	0
bin	-0.3	0
bin	-0.28	0
bin	-0.26	0
bin	-0.24	0
bin	-0.22	0
bin	-0.2	0
bin	-0.18	0
bin	-0.16	0
bin	-0.14	0
bin	-0.12	0
bin	-0.1	0
bin	-0.08	0
bin	-0.06	0
bin	-0.04	0
bin	-0.02	0
bin	0	1726471
bin	0.02	0
bin	0.04	0
bin	0.06	0
bin	0.08	0
bin	0.1	0
bin	0.12	0
bin	0.14	0
bin	0.16	0
bin	0.18	0
bin	0.2	0
bin	0.22	0
bin	0.24	0
bin	0.26	0
bin	0.28	0
bin	0.3	0
bin	0.32	0
bin	0.34	0
bin	0.36	0
bin	0.38	0
bin	0.4	0
bin	0.42	0
bin	0.44	0
bin	0.46	0
bin	0.48	0
bin	0.5	0
statistic Network.tor[6] bandwidth_histogram
field count 1200
field mean 328.382
field stddev 17.718081066069
field min 287.64
field max 438.12
field sum 394058.4
field sqrsum 129778088.0544
bin	-inf	0
bin	287	1
bin	289	0
bin	291	2
bin	293	3
bin	295	5
bin	297	7
bin	299	9
bin	301	13
bin	303	16
bin	305	24
bin	307	27
bin	309	29
bin	311	44
bin	313	54
bin	315	62
bin	317	69
bin	319	47
bin	321	81
bin	323	69
bin	325	59
bin	327	73
bin	329	57
bin	331	54
bin	333	56
bin	335	47
bin	337	39
bin	339	41
bin	341	36
bin	343	23
bin	345	29
bin	347	17
bin	349	13
bin	351	19
bin	353	11
bin	355	8
bin	357	9
bin	359	3
bin	361	8
bin	363	5
bin	365	2
bin	367	1
bin	369	0
bin	371	3
bin	373	2
bin	375	0
bin	377	2
bin	379	0
bin	381	1
bin	383	2
bin	385	1
bin	387	3
bin	389	1
bin	391	0
bin	393	2
bin	395	0
bin	397	1
bin	399	0
bin	401	0
bin	403	1
bin	405	0
bin	407	1
bin	409	0
bin	411	0
bin	413	0
bin	415	0
bin	417	1
bin	419	0
bin	421	1
bin	423	2
bin	425	0
bin	427	1
bin	429	0
bin	431	1
bin	433	0
bin	435	1
bin	437	1
bin	439	0
scalar Network.tor[6] "cache_content_by_app: " 0.59663865546218
scalar Network.tor[7] "Bandwidth: " 0
statistic Network.tor[7] "flow count"
field count 1200
field mean 637.72083333333
field stddev 22.281942691651
field min 564
field max 706
field sum 765265
field sqrsum 488620719
bin	-inf	0
bin	564	1
bin	566	0
bin	568	0
bin	570	0
bin	572	0
bin	574	1
bin	576	0
bin	578	0
bin	580	0
bin	582	1
bin	584	0
bin	586	2
bin	588	4
bin	590	2
bin	592	5
bin	594	3
bin	596	7
bin	598	10
bin	600	8
bin	602	12
bin	604	24
bin	606	18
bin	608	18
bin	610	21
bin	612	26
bin	614	25
bin	616	34
bin	618	36
bin	620	30
bin	622	32
bin	624	54
bin	626	49
bin	628	42
bin	630	51
bin	632	42
bin	634	40
bin	636	45
bin	638	41
bin	640	32
bin	642	38
bin	644	30
bin	646	28
bin	648	30
bin	650	34
bin	652	31
bin	654	19
bin	656	25
bin	658	17
bin	660	32
bin	662	20
bin	664	19
bin	666	23
bin	668	18
bin	670	16
bin	672	20
bin	674	16
bin	676	16
bin	678	11
bin	680	11
bin	682	9
bin	684	7
bin	686	6
bin	688	2
bin	690	1
bin	692	0
bin	694	2
bin	696	0
bin	698	1
bin	700	0
bin	702	1
bin	704	0
bin	706	1
bin	708	0
statistic Network.tor[7] cache_occupancy
field count 1200
field mean 300
field stddev 0
field min 300
field max 300
field sum 360000
field sqrsum 108000000
bin	-inf	0
bin	299	0
bin	300	1200
bin	301	0
statistic Network.tor[7] activity_time_of_a_rule_A
field count 233441
field mean 7.3057596303113e-005
field stddev 0.00037243794423163
field min 0
field max 0.018321753884
field sum 17.054638338595
field sqrsum 0.033626438489361
bin	-inf	0
bin	-0.5	0
bin	-0.48	0
bin	-0.46	0
bin	-0.44	0
bin	-0.42	0
bin	-0.4	0
bin	-0.38	0
bin	-0.36	0
bin	-0.34	0
bin	-0.32	0
bin	-0.3	0
bin	-0.28	0
bin	-0.26	0
bin	-0.24	0
bin	-0.22	0
bin	-0.2	0
bin	-0.18	0
bin	-0.16	0
bin	-0.14	0
bin	-0.12	0
bin	-0.1	0
bin	-0.08	0
bin	-0.06	0
bin	-0.04	0
bin	-0.02	0
bin	0	233441
bin	0.02	0
bin	0.04	0
bin	0.06	0
bin	0.08	0
bin	0.1	0
bin	0.12	0
bin	0.14	0
bin	0.16	0
bin	0.18	0
bin	0.2	0
bin	0.22	0
bin	0.24	0
bin	0.26	0
bin	0.28	0
bin	0.3	0
bin	0.32	0
bin	0.34	0
bin	0.36	0
bin	0.38	0
bin	0.4	0
bin	0.42	0
bin	0.44	0
bin	0.46	0
bin	0.48	0
bin	0.5	0
statistic Network.tor[7] activity_time_of_a_rule_B
field count 1727501
field mean 3.6622757185703e-006
field stddev 3.2827184141617e-005
field min 0
field max 0.004192399986
field sum 6.326584966106
field sqrsum 0.0018847651907511
bin	-inf	0
bin	-0.5	0
bin	-0.48	0
bin	-0.46	0
bin	-0.44	0
bin	-0.42	0
bin	-0.4	0
bin	-0.38	0
bin	-0.36	0
bin	-0.34	0
bin	-0.32	0
bin	-0.3	0
bin	-0.28	0
bin	-0.26	0
bin	-0.24	0
bin	-0.22	0
bin	-0.2	0
bin	-0.18	0
bin	-0.16	0
bin	-0.14	0
bin	-0.12	0
bin	-0.1	0
bin	-0.08	0
bin	-0.06	0
bin	-0.04	0
bin	-0.02	0
bin	0	1727501
bin	0.02	0
bin	0.04	0
bin	0.06	0
bin	0.08	0
bin	0.1	0
bin	0.12	0
bin	0.14	0
bin	0.16	0
bin	0.18	0
bin	0.2	0
bin	0.22	0
bin	0.24	0
bin	0.26	0
bin	0.28	0
bin	0.3	0
bin	0.32	0
bin	0.34	0
bin	0.36	0
bin	0.38	0
bin	0.4	0
bin	0.42	0
bin	0.44	0
bin	0.46	0
bin	0.48	0
bin	0.5	0
statistic Network.tor[7] bandwidth_histogram
field count 1200
field mean 333.9035
field stddev 19.815578367496
field min 283.08
field max 401.4
field sum 400684.2
field sqrsum 134260652.6928
bin	-inf	0
bin	282	1
bin	284	2
bin	286	2
bin	288	3
bin	290	2
bin	292	3
bin	294	7
bin	296	8
bin	298	16
bin	300	17
bin	302	15
bin	304	17
bin	306	14
bin	308	29
bin	310	25
bin	312	34
bin	314	27
bin	316	32
bin	318	44
bin	320	38
bin	322	47
bin	324	47
bin	326	52
bin	328	56
bin	330	53
bin	332	47
bin	334	37
bin	336	48
bin	338	39
bin	340	51
bin	342	30
bin	344	42
bin	346	26
bin	348	29
bin	350	33
bin	352	24
bin	354	28
bin	356	24
bin	358	31
bin	360	13
bin	362	17
bin	364	14
bin	366	17
bin	368	9
bin	370	11
bin	372	10
bin	374	6
bin	376	4
bin	378	7
bin	380	2
bin	382	1
bin	384	2
bin	386	1
bin	388	1
bin	390	1
bin	392	2
bin	394	0
bin	396	0
bin	398	0
bin	400	2
bin	402	0
scalar Network.tor[7] "cache_content_by_app: " 0.66101694915254
scalar Network.tor[8] "Bandwidth: " 0
statistic Network.tor[8] "flow count"
field count 1200
field mean 642.265
field stddev 15.322219715635
field min 596
field max 695
field sum 770718
field sqrsum 495286686
bin	-inf	0
bin	576	0
bin	578	0
bin	580	0
bin	582	0
bin	584	0
bin	586	0
bin	588	0
bin	590	0
bin	592	0
bin	594	0
bin	596	1
bin	598	0
bin	600	1
bin	602	1
bin	604	1
bin	606	2
bin	608	8
bin	610	10
bin	612	7
bin	614	5
bin	616	9
bin	618	24
bin	620	22
bin	622	27
bin	624	29
bin	626	35
bin	628	50
bin	630	58
bin	632	57
bin	634	64
bin	636	75
bin	638	73
bin	640	57
bin	642	59
bin	644	58
bin	646	56
bin	648	50
bin	650	60
bin	652	43
bin	654	33
bin	656	26
bin	658	35
bin	660	22
bin	662	25
bin	664	23
bin	666	16
bin	668	19
bin	670	16
bin	672	10
bin	674	7
bin	676	8
bin	678	3
bin	680	3
bin	682	3
bin	684	2
bin	686	2
bin	688	2
bin	690	0
bin	692	1
bin	694	2
bin	696	0
statistic Network.tor[8] cache_occupancy
field count 1200
field mean 300
field stddev 0
field min 300
field max 300
field sum 360000
field sqrsum 108000000
bin	-inf	0
bin	299	0
bin	300	1200
bin	301	0
statistic Network.tor[8] activity_time_of_a_rule_A
field count 232196
field mean 7.1983492883245e-005
field stddev 0.00037816894790991
field min 0
field max 0.024598828893
field sum 16.714279113518
field sqrsum 0.034409766217366
bin	-inf	0
bin	-0.5	0
bin	-0.48	0
bin	-0.46	0
bin	-0.44	0
bin	-0.42	0
bin	-0.4	0
bin	-0.38	0
bin	-0.36	0
bin	-0.34	0
bin	-0.32	0
bin	-0.3	0
bin	-0.28	0
bin	-0.26	0
bin	-0.24	0
bin	-0.22	0
bin	-0.2	0
bin	-0.18	0
bin	-0.16	0
bin	-0.14	0
bin	-0.12	0
bin	-0.1	0
bin	-0.08	0
bin	-0.06	0
bin	-0.04	0
bin	-0.02	0
bin	0	232195
bin	0.02	1
bin	0.04	0
bin	0.06	0
bin	0.08	0
bin	0.1	0
bin	0.12	0
bin	0.14	0
bin	0.16	0
bin	0.18	0
bin	0.2	0
bin	0.22	0
bin	0.24	0
bin	0.26	0
bin	0.28	0
bin	0.3	0
bin	0.32	0
bin	0.34	0
bin	0.36	0
bin	0.38	0
bin	0.4	0
bin	0.42	0
bin	0.44	0
bin	0.46	0
bin	0.48	0
bin	0.5	0
statistic Network.tor[8] activity_time_of_a_rule_B
field count 1726038
field mean 3.7988826798077e-006
field stddev 3.3769553804617e-005
field min 0
field max 0.003539501674
field sum 6.55701586289
field sqrsum 0.0019932521791003
bin	-inf	0
bin	-0.5	0
bin	-0.48	0
bin	-0.46	0
bin	-0.44	0
bin	-0.42	0
bin	-0.4	0
bin	-0.38	0
bin	-0.36	0
bin	-0.34	0
bin	-0.32	0
bin	-0.3	0
bin	-0.28	0
bin	-0.26	0
bin	-0.24	0
bin	-0.22	0
bin	-0.2	0
bin	-0.18	0
bin	-0.16	0
bin	-0.14	0
bin	-0.12	0
bin	-0.1	0
bin	-0.08	0
bin	-0.06	0
bin	-0.04	0
bin	-0.02	0
bin	0	1726038
bin	0.02	0
bin	0.04	0
bin	0.06	0
bin	0.08	0
bin	0.1	0
bin	0.12	0
bin	0.14	0
bin	0.16	0
bin	0.18	0
bin	0.2	0
bin	0.22	0
bin	0.24	0
bin	0.26	0
bin	0.28	0
bin	0.3	0
bin	0.32	0
bin	0.34	0
bin	0.36	0
bin	0.38	0
bin	0.4	0
bin	0.42	0
bin	0.44	0
bin	0.46	0
bin	0.48	0
bin	0.5	0
statistic Network.tor[8] bandwidth_histogram
field count 1200
field mean 328.4422
field stddev 20.657439612306
field min 272.88
field max 391.56
field sum 394130.64
field sqrsum 129960783.5328
bin	-inf	0
bin	271	1
bin	273	1
bin	275	4
bin	277	2
bin	279	1
bin	281	5
bin	283	3
bin	285	11
bin	287	4
bin	289	13
bin	291	12
bin	293	8
bin	295	22
bin	297	27
bin	299	22
bin	301	15
bin	303	27
bin	305	30
bin	307	17
bin	309	33
bin	311	34
bin	313	39
bin	315	32
bin	317	31
bin	319	29
bin	321	32
bin	323	34
bin	325	34
bin	327	53
bin	329	40
bin	331	53
bin	333	55
bin	335	56
bin	337	36
bin	339	37
bin	341	52
bin	343	33
bin	345	37
bin	347	43
bin	349	17
bin	351	30
bin	353	24
bin	355	16
bin	357	19
bin	359	15
bin	361	14
bin	363	9
bin	365	7
bin	367	5
bin	369	8
bin	371	7
bin	373	4
bin	375	1
bin	377	0
bin	379	1
bin	381	3
bin	383	0
bin	385	0
bin	387	1
bin	389	0
bin	391	1
bin	393	0
scalar Network.tor[8] "cache_content_by_app: " 0.67364016736402
scalar Network.tor[9] "Bandwidth: " 0
statistic Network.tor[9] "flow count"
field count 1200
field mean 658.875
field stddev 17.98709689506
field min 603
field max 720
field sum 790650
field sqrsum 521327438
bin	-inf	0
bin	603	1
bin	605	1
bin	607	1
bin	609	0
bin	611	1
bin	613	0
bin	615	0
bin	617	5
bin	619	4
bin	621	6
bin	623	5
bin	625	13
bin	627	17
bin	629	18
bin	631	21
bin	633	16
bin	635	28
bin	637	33
bin	639	32
bin	641	34
bin	643	32
bin	645	50
bin	647	35
bin	649	49
bin	651	43
bin	653	43
bin	655	51
bin	657	45
bin	659	62
bin	661	50
bin	663	41
bin	665	45
bin	667	40
bin	669	48
bin	671	40
bin	673	36
bin	675	32
bin	677	37
bin	679	31
bin	681	31
bin	683	26
bin	685	20
bin	687	17
bin	689	23
bin	691	12
bin	693	10
bin	695	6
bin	697	0
bin	699	3
bin	701	3
bin	703	2
bin	705	0
bin	707	0
bin	709	0
bin	711	0
bin	713	0
bin	715	0
bin	717	0
bin	719	1
bin	721	0
statistic Network.tor[9] cache_occupancy
field count 1200
field mean 300
field stddev 0
field min 300
field max 300
field sum 360000
field sqrsum 108000000
bin	-inf	0
bin	299	0
bin	300	1200
bin	301	0
statistic Network.tor[9] activity_time_of_a_rule_A
field count 237982
field mean 7.1539256661966e-005
field stddev 0.00034947796966429
field min 0
field max 0.02272487932
field sum 17.025055378928
field sqrsum 0.030283733849063
bin	-inf	0
bin	-0.5	0
bin	-0.48	0
bin	-0.46	0
bin	-0.44	0
bin	-0.42	0
bin	-0.4	0
bin	-0.38	0
bin	-0.36	0
bin	-0.34	0
bin	-0.32	0
bin	-0.3	0
bin	-0.28	0
bin	-0.26	0
bin	-0.24	0
bin	-0.22	0
bin	-0.2	0
bin	-0.18	0
bin	-0.16	0
bin	-0.14	0
bin	-0.12	0
bin	-0.1	0
bin	-0.08	0
bin	-0.06	0
bin	-0.04	0
bin	-0.02	0
bin	0	237981
bin	0.02	1
bin	0.04	0
bin	0.06	0
bin	0.08	0
bin	0.1	0
bin	0.12	0
bin	0.14	0
bin	0.16	0
bin	0.18	0
bin	0.2	0
bin	0.22	0
bin	0.24	0
bin	0.26	0
bin	0.28	0
bin	0.3	0
bin	0.32	0
bin	0.34	0
bin	0.36	0
bin	0.38	0
bin	0.4	0
bin	0.42	0
bin	0.44	0
bin	0.46	0
bin	0.48	0
bin	0.5	0
statistic Network.tor[9] activity_time_of_a_rule_B
field count 1729938
field mean 3.5626775232904e-006
field stddev 3.1407375141605e-005
field min 0
field max 0.005072087435
field sum 6.163211229286
field sqrsum 0.0017284075484393
bin	-inf	0
bin	-0.5	0
bin	-0.48	0
bin	-0.46	0
bin	-0.44	0
bin	-0.42	0
bin	-0.4	0
bin	-0.38	0
bin	-0.36	0
bin	-0.34	0
bin	-0.32	0
bin	-0.3	0
bin	-0.28	0
bin	-0.26	0
bin	-0.24	0
bin	-0.22	0
bin	-0.2	0
bin	-0.18	0
bin	-0.16	0
bin	-0.14	0
bin	-0.12	0
bin	-0.1	0
bin	-0.08	0
bin	-0.06	0
bin	-0.04	0
bin	-0.02	0
bin	0	1729938
bin	0.02	0
bin	0.04	0
bin	0.06	0
bin	0.08	0
bin	0.1	0
bin	0.12	0
bin	0.14	0
bin	0.16	0
bin	0.18	0
bin	0.2	0
bin	0.22	0
bin	0.24	0
bin	0.26	0
bin	0.28	0
bin	0.3	0
bin	0.32	0
bin	0.34	0
bin	0.36	0
bin	0.38	0
bin	0.4	0
bin	0.42	0
bin	0.44	0
bin	0.46	0
bin	0.48	0
bin	0.5	0
statistic Network.tor[9] bandwidth_histogram
field count 1200
field mean 335.7129
field stddev 21.16682015528
field min 273.48
field max 393.96
field sum 402855.48
field sqrsum 135780974.568
bin	-inf	0
bin	272	1
bin	274	0
bin	276	0
bin	278	0
bin	280	1
bin	282	2
bin	284	2
bin	286	4
bin	288	3
bin	290	10
bin	292	6
bin	294	5
bin	296	5
bin	298	15
bin	300	13
bin	302	12
bin	304	9
bin	306	22
bin	308	30
bin	310	26
bin	312	21
bin	314	26
bin	316	25
bin	318	33
bin	320	41
bin	322	35
bin	324	46
bin	326	51
bin	328	40
bin	330	33
bin	332	50
bin	334	51
bin	336	41
bin	338	60
bin	340	38
bin	342	44
bin	344	35
bin	346	35
bin	348	38
bin	350	38
bin	352	32
bin	354	23
bin	356	21
bin	358	17
bin	360	14
bin	362	17
bin	364	19
bin	366	20
bin	368	15
bin	370	11
bin	372	11
bin	374	13
bin	376	8
bin	378	10
bin	380	1
bin	382	2
bin	384	8
bin	386	2
bin	388	4
bin	390	2
bin	392	3
bin	394	0
scalar Network.tor[9] "cache_content_by_app: " 0.63291139240506
scalar Network.agg[0] "Bandwidth: " 0
statistic Network.agg[0] "flow count"
field count 1200
field mean 3550.725
field stddev 20.157040876927
field min 3485
field max 3602
field sum 4260870
field sqrsum 15129664792
bin	-inf	0
bin	3484	1
bin	3486	1
bin	3488	0
bin	3490	1
bin	3492	0
bin	3494	0
bin	3496	0
bin	3498	0
bin	3500	2
bin	3502	4
bin	3504	4
bin	3506	1
bin	3508	9
bin	3510	4
bin	3512	9
bin	3514	10
bin	3516	9
bin	3518	18
bin	3520	24
bin	3522	19
bin	3524	21
bin	3526	27
bin	3528	32
bin	3530	30
bin	3532	29
bin	3534	35
bin	3536	33
bin	3538	33
bin	3540	29
bin	3542	43
bin	3544	51
bin	3546	32
bin	3548	41
bin	3550	55
bin	3552	41
bin	3554	56
bin	3556	41
bin	3558	47
bin	3560	31
bin	3562	41
bin	3564	46
bin	3566	39
bin	3568	30
bin	3570	37
bin	3572	27
bin	3574	20
bin	3576	22
bin	3578	25
bin	3580	14
bin	3582	18
bin	3584	9
bin	3586	9
bin	3588	13
bin	3590	9
bin	3592	4
bin	3594	6
bin	3596	2
bin	3598	2
bin	3600	1
bin	3602	3
bin	3604	0
bin	3606	0
bin	3608	0
bin	3610	0
bin	3612	0
statistic Network.agg[0] cache_occupancy
field count 1200
field mean 1500
field stddev 0
field min 1500
field max 1500
field sum 1800000
field sqrsum 2700000000
bin	-inf	0
bin	1499	0
bin	1500	1200
bin	1501	0
statistic Network.agg[0] activity_time_of_a_rule_A
field count 207569
field mean 4.445345372203e-005
field stddev 5.8504128651024e-005
field min 0
field max 0.001029459961
field sum 9.227158935628
field sqrsum 0.0011206289404417
bin	-inf	0
bin	0	78325
bin	1.28e-005	26450
bin	2.56e-005	21549
bin	3.84e-005	16835
bin	5.12e-005	13197
bin	6.4e-005	10847
bin	7.68e-005	8324
bin	8.96e-005	6244
bin	0.0001024	5016
bin	0.0001152	3936
bin	0.000128	3205
bin	0.0001408	2597
bin	0.0001536	2050
bin	0.0001664	1726
bin	0.0001792	1327
bin	0.000192	1040
bin	0.0002048	809
bin	0.0002176	655
bin	0.0002304	500
bin	0.0002432	495
bin	0.000256	399
bin	0.0002688	348
bin	0.0002816	287
bin	0.0002944	205
bin	0.0003072	164
bin	0.00032	146
bin	0.0003328	123
bin	0.0003456	121
bin	0.0003584	105
bin	0.0003712	92
bin	0.000384	67
bin	0.0003968	54
bin	0.0004096	40
bin	0.0004224	41
bin	0.0004352	24
bin	0.000448	29
bin	0.0004608	25
bin	0.0004736	26
bin	0.0004864	21
bin	0.0004992	14
bin	0.000512	12
bin	0.0005248	8
bin	0.0005376	9
bin	0.0005504	12
bin	0.0005632	6
bin	0.000576	6
bin	0.0005888	7
bin	0.0006016	6
bin	0.0006144	8
bin	0.0006272	6
bin	0.00064	3
bin	0.0006528	4
bin	0.0006656	4
bin	0.0006784	3
bin	0.0006912	1
bin	0.000704	2
bin	0.0007168	0
bin	0.0007296	1
bin	0.0007424	2
bin	0.0007552	1
bin	0.000768	2
bin	0.0007808	0
bin	0.0007936	1
bin	0.0008064	0
bin	0.0008192	0
bin	0.000832	0
bin	0.0008448	0
bin	0.0008576	0
bin	0.0008704	1
bin	0.0008832	0
bin	0.000896	0
bin	0.0009088	0
bin	0.0009216	0
bin	0.0009344	0
bin	0.0009472	1
bin	0.00096	0
bin	0.0009728	1
bin	0.0009856	1
bin	0.0009984	1
bin	0.0010112	1
bin	0.001024	1
bin	0.0010368	0
statistic Network.agg[0] activity_time_of_a_rule_B
field count 1600349
field mean 5.67147202449e-005
field stddev 8.0814486337051e-005
field min 0
field max 0.001762063946
field sum 90.763345829205
field sqrsum 0.015599460471727
bin	-inf	0
bin	0	753665
bin	2.56e-005	273673
bin	5.12e-005	175198
bin	7.68e-005	115959
bin	0.0001024	78408
bin	0.000128	53386
bin	0.0001536	38519
bin	0.0001792	27313
bin	0.0002048	19871
bin	0.0002304	14607
bin	0.000256	11031
bin	0.0002816	8354
bin	0.0003072	6373
bin	0.0003328	4915
bin	0.0003584	3924
bin	0.000384	2948
bin	0.0004096	2313
bin	0.0004352	1851
bin	0.0004608	1480
bin	0.0004864	1173
bin	0.000512	986
bin	0.0005376	778
bin	0.0005632	630
bin	0.0005888	533
bin	0.0006144	414
bin	0.00064	347
bin	0.0006656	273
bin	0.0006912	237
bin	0.0007168	177
bin	0.0007424	160
bin	0.000768	128
bin	0.0007936	118
bin	0.0008192	94
bin	0.0008448	78
bin	0.0008704	64
bin	0.000896	54
bin	0.0009216	48
bin	0.0009472	32
bin	0.0009728	37
bin	0.0009984	32
bin	0.001024	32
bin	0.0010496	15
bin	0.0010752	15
bin	0.0011008	11
bin	0.0011264	13
bin	0.001152	15
bin	0.0011776	13
bin	0.0012032	7
bin	0.0012288	8
bin	0.0012544	6
bin	0.00128	8
bin	0.0013056	4
bin	0.0013312	4
bin	0.0013568	0
bin	0.0013824	2
bin	0.001408	1
bin	0.0014336	2
bin	0.0014592	3
bin	0.0014848	2
bin	0.0015104	0
bin	0.001536	1
bin	0.0015616	1
bin	0.0015872	1
bin	0.0016128	0
bin	0.0016384	0
bin	0.001664	0
bin	0.0016896	1
bin	0.0017152	1
bin	0.0017408	2
bin	0.0017664	0
statistic Network.agg[0] bandwidth_histogram
field count 0
field mean nan
field stddev nan
field min nan
field max nan
field sum 0
field sqrsum 0
bin	-inf	0
bin	0	0
bin	1	0
scalar Network.agg[0] "cache_content_by_app: " 0.10188989317995
statistic Network.dest "miss count"
field count 32219829
field mean 0.54456881195738
field stddev 0.67998735675242
field min 0
field max 2
field sum 17545914
field sqrsum 24452852
bin	-inf	0
bin	0	18127384
bin	1	10638976
bin	2	3453469
bin	3	0
statistic Network.dest "out of order"
field count 32219829
field mean 1.1000930203571
field stddev 10.371984061186
field min -21
field max 5124
field sum 35444809
field sqrsum 3505138963
bin	-inf	0
bin	-100	17183
bin	0	32196100
bin	100	1408
bin	200	1431
bin	300	1351
bin	400	1173
bin	500	75
bin	600	88
bin	700	81
bin	800	80
bin	900	61
bin	1000	78
bin	1100	69
bin	1200	80
bin	1300	64
bin	1400	54
bin	1500	46
bin	1600	50
bin	1700	47
bin	1800	37
bin	1900	33
bin	2000	47
bin	2100	28
bin	2200	36
bin	2300	21
bin	2400	17
bin	2500	14
bin	2600	25
bin	2700	13
bin	2800	12
bin	2900	10
bin	3000	0
bin	3100	1
bin	3200	1
bin	3300	1
bin	3400	2
bin	3500	1
bin	3600	0
bin	3700	2
bin	3800	0
bin	3900	0
bin	4000	1
bin	4100	1
bin	4200	1
bin	4300	0
bin	4400	1
bin	4500	1
bin	4600	0
bin	4700	1
bin	4800	1
bin	4900	1
bin	5000	0
bin	5100	1
bin	5200	0
statistic Network.dest "bandwidth to destination"
field count 1200
field mean 3221982900000
field stddev 62122470980.753
field min 3030000000000
field max 3405600000000
field sum 3.86637948e+015
field sqrsum 1.246203575195e+028
bin	-inf	0
bin	3005000000000	0
bin	3010000000000	0
bin	3015000000000	0
bin	3020000000000	0
bin	3025000000000	0
bin	3030000000000	1
bin	3035000000000	0
bin	3040000000000	0
bin	3045000000000	0
bin	3050000000000	0
bin	3055000000000	3
bin	3060000000000	0
bin	3065000000000	1
bin	3070000000000	0
bin	3075000000000	4
bin	3080000000000	2
bin	3085000000000	0
bin	3090000000000	2
bin	3095000000000	9
bin	3100000000000	11
bin	3105000000000	9
bin	3110000000000	10
bin	3115000000000	9
bin	3120000000000	10
bin	3125000000000	17
bin	3130000000000	21
bin	3135000000000	18
bin	3140000000000	23
bin	3145000000000	28
bin	3150000000000	28
bin	3155000000000	23
bin	3160000000000	19
bin	3165000000000	18
bin	3170000000000	21
bin	3175000000000	28
bin	3180000000000	31
bin	3185000000000	31
bin	3190000000000	35
bin	3195000000000	32
bin	3200000000000	26
bin	3205000000000	40
bin	3210000000000	36
bin	3215000000000	37
bin	3220000000000	28
bin	3225000000000	18
bin	3230000000000	32
bin	3235000000000	37
bin	3240000000000	23
bin	3245000000000	42
bin	3250000000000	40
bin	3255000000000	41
bin	3260000000000	31
bin	3265000000000	35
bin	3270000000000	30
bin	3275000000000	36
bin	3280000000000	23
bin	3285000000000	38
bin	3290000000000	25
bin	3295000000000	18
bin	3300000000000	18
bin	3305000000000	19
bin	3310000000000	16
bin	3315000000000	9
bin	3320000000000	13
bin	3325000000000	6
bin	3330000000000	9
bin	3335000000000	9
bin	3340000000000	2
bin	3345000000000	4
bin	3350000000000	5
bin	3355000000000	1
bin	3360000000000	3
bin	3365000000000	2
bin	3370000000000	1
bin	3375000000000	0
bin	3380000000000	0
bin	3385000000000	2
bin	3390000000000	0
bin	3395000000000	0
bin	3400000000000	0
bin	3405000000000	1
bin	3410000000000	0
statistic Network.dest miss_count_by_apps
field count 32219829
field mean 0.79442693504053
field stddev 0.85659061838088
field min 0
field max 2.5
field sum 25596300
field sqrsum 43975608
bin	-inf	0
bin	-0.02	14637593
bin	0.01	0
bin	0.04	0
bin	0.07	0
bin	0.1	0
bin	0.13	0
bin	0.16	0
bin	0.19	0
bin	0.22	0
bin	0.25	0
bin	0.28	0
bin	0.31	0
bin	0.34	0
bin	0.37	0
bin	0.4	0
bin	0.43	0
bin	0.46	0
bin	0.49	3489791
bin	0.52	0
bin	0.55	0
bin	0.58	0
bin	0.61	0
bin	0.64	0
bin	0.67	0
bin	0.7	0
bin	0.73	0
bin	0.76	0
bin	0.79	0
bin	0.82	0
bin	0.85	0
bin	0.88	0
bin	0.91	0
bin	0.94	0
bin	0.97	0
bin	1	914577
bin	1.03	0
bin	1.06	0
bin	1.09	0
bin	1.12	0
bin	1.15	0
bin	1.18	0
bin	1.21	0
bin	1.24	0
bin	1.27	0
bin	1.3	0
bin	1.33	0
bin	1.36	0
bin	1.39	0
bin	1.42	0
bin	1.45	0
bin	1.48	9724399
bin	1.51	0
bin	1.54	0
bin	1.57	0
bin	1.6	0
bin	1.63	0
bin	1.66	0
bin	1.69	0
bin	1.72	0
bin	1.75	0
bin	1.78	0
bin	1.81	0
bin	1.84	0
bin	1.87	0
bin	1.9	0
bin	1.93	0
bin	1.96	0
bin	1.99	566887
bin	2.02	0
bin	2.05	0
bin	2.08	0
bin	2.11	0
bin	2.14	0
bin	2.17	0
bin	2.2	0
bin	2.23	0
bin	2.26	0
bin	2.29	0
bin	2.32	0
bin	2.35	0
bin	2.38	0
bin	2.41	0
bin	2.44	0
bin	2.47	0
bin	2.5	2886582
bin	2.53	0
bin	2.56	0
bin	2.59	0
bin	2.62	0
bin	2.65	0
scalar Network.dest "Simulation duration (in minutes). By chrono library: " 4.8666666666667

