version 2
run General-2-20230921-09:39:29-10248
attr configname General
attr datetime 20230921-09:39:29
attr experiment General
attr inifile omnetpp.ini
attr iterationvars "$endSim=3.12s, $hosts=15000, $SizeDist=i-hadoop, $p=0.5, $scale=1, $alg=diversity, $diversityTh=3, $pAlg=0.5, $countTh=2, $ThInAgg=2.5e9, $packetIndexAgg=4, $packetIndexCosw=4, $NumOfToRs=10, $cacheToR=300, $cacheAgg=10*300*0.5, $thInCons=2.5e9, $rate=1600000000000, $S=xxx/diversity dv = 3 p = 0.5 th in Agg = 2.5e9 countTh = 2 App A=(Hadoop 2.5e9 t 4) App B (avg(Hadoop) 2.5e9 d 4)/end time = 3.12s CToR = 300/"
attr iterationvarsf endSim=3.12s,hosts=15000,SizeDist=i-hadoop,p=0.5,scale=1,alg=diversity,diversityTh=3,pAlg=0.5,countTh=2,ThInAgg=2.5e9,packetIndexAgg=4,packetIndexCosw=4,NumOfToRs=10,cacheToR=300,cacheAgg=10#2a300#2a0.5,thInCons=2.5e9,rate=1600000000000,S=xxx#2fdiversity_dv_=_3_p_=_0.5_th_in_Agg_=_2.5e9_countTh_=_2_App_A=(Hadoop_2.5e9_t_4)_App_B_(avg(Hadoop)_2.5e9_d_4)#2fend_time_=_3.12s_CToR_=_300#2f-
attr measurement "$endSim=3.12s, $hosts=15000, $SizeDist=i-hadoop, $p=0.5, $scale=1, $alg=diversity, $diversityTh=3, $pAlg=0.5, $countTh=2, $ThInAgg=2.5e9, $packetIndexAgg=4, $packetIndexCosw=4, $NumOfToRs=10, $cacheToR=300, $cacheAgg=10*300*0.5, $thInCons=2.5e9, $rate=1600000000000, $S=xxx/diversity dv = 3 p = 0.5 th in Agg = 2.5e9 countTh = 2 App A=(Hadoop 2.5e9 t 4) App B (avg(Hadoop) 2.5e9 d 4)/end time = 3.12s CToR = 300/"
attr network Network
attr processid 10248
attr repetition 0
attr replication #0
attr resultdir results
attr runnumber 2
attr seedset 2
itervar NumOfToRs 10
itervar S "xxx/diversity dv = 3 p = 0.5 th in Agg = 2.5e9 countTh = 2 App A=(Hadoop 2.5e9 t 4) App B (avg(Hadoop) 2.5e9 d 4)/end time = 3.12s CToR = 300/"
itervar SizeDist i-hadoop
itervar ThInAgg 2.5e9
itervar alg diversity
itervar cacheAgg 10*300*0.5
itervar cacheToR 300
itervar countTh 2
itervar diversityTh 3
itervar endSim 3.12s
itervar hosts 15000
itervar p 0.5
itervar pAlg 0.5
itervar packetIndexAgg 4
itervar packetIndexCosw 4
itervar rate 1600000000000
itervar scale 1
itervar thInCons 2.5e9
param Network.estimate_rate_interval 0.5e-3
param Network.policy_size "\"10e6\""
param Network.rack[*].number_of_hosts 15000
param Network.size_distribution "\"size_distribution/i-hadoop.csv\""
param Network.prob_of_app_A 0.5
param Network.scale 1
param Network.algorithm "\"diversity\""
param Network.diversity_th 3
param Network.p_in_algorithm 0.5
param Network.count_th 2
param Network.push_threshold_in_aggregation 2.5e9
param Network.packet_index_for_decision_Agg 4
param Network.packet_index_for_decision_cosw 4
param Network.cache_size "\"2222\""
param Network.NumOfToRs 10
param Network.NumOfAggregation 1
param Network.tor[*].max_cache_size 300
param Network.agg[*].max_cache_size 10*300*0.5
param Network.push_threshold_in_controller_switch 2.5e9
param Network.total_rate_in_tor "\"1600000000000\""
param Network.output_file "\"xxx/diversity dv = 3 p = 0.5 th in Agg = 2.5e9 countTh = 2 App A=(Hadoop 2.5e9 t 4) App B (avg(Hadoop) 2.5e9 d 4)/end time = 3.12s CToR = 300/\""
param Network.run_elephant false
param Network.bandwidth_elephant_threshold "\"2.5e9\""
param Network.run_push true
param Network.record_traffic false
param Network.create_offline_traffic false
param Network.linedelay 0.2
param Network.tor[*].threshold 2
param Network.agg[*].threshold 2
param Network.tor[*].Type 1001
param Network.agg[*].Type 1002
param Network.rack[*].host[*].flow_appearance "\"\""
param Network.rack[*].host[*].flow_size "\"\""
param Network.propagation_time "\"\""
param Network.processing_time_on_data_packet_in_sw "\"\""
param Network.processing_time_on_data_packet_in_controller "\"\""
param Network.insertion_delay "\"\""
param Network.eviction_delay "\"\""
param Network.elephant_table_size "\"\""
param Network.flush_elephant_time "\"\""
param Network.check_for_elephant_time "\"\""
param Network.elephant_sample_rx "\"\""
param Network.already_requested_threshold "\"\""
param Network.cache_percentage "\"\""
param Network.eviction_sample_size "\"\""
param Network.inter_arrival_time_between_packets "\"\""
param Network.inter_arrival_time_between_flowlets "\"\""
param Network.inter_arrival_time_between_flows "\"\""
param Network.large_flow "\"\""
param Network.last_flow_appearance "\"0\""
param Network.rack[*].last_flow_appearance 0

scalar Network.controller "prob_of_app_A: " 0.5
scalar Network.tor[0] "max_cache_size: " 300
scalar Network.tor[0] "push threshold: " 0
scalar Network.tor[1] "max_cache_size: " 300
scalar Network.tor[1] "push threshold: " 0
scalar Network.tor[2] "max_cache_size: " 300
scalar Network.tor[2] "push threshold: " 0
scalar Network.tor[3] "max_cache_size: " 300
scalar Network.tor[3] "push threshold: " 0
scalar Network.tor[4] "max_cache_size: " 300
scalar Network.tor[4] "push threshold: " 0
scalar Network.tor[5] "max_cache_size: " 300
scalar Network.tor[5] "push threshold: " 0
scalar Network.tor[6] "max_cache_size: " 300
scalar Network.tor[6] "push threshold: " 0
scalar Network.tor[7] "max_cache_size: " 300
scalar Network.tor[7] "push threshold: " 0
scalar Network.tor[8] "max_cache_size: " 300
scalar Network.tor[8] "push threshold: " 0
scalar Network.tor[9] "max_cache_size: " 300
scalar Network.tor[9] "push threshold: " 0
scalar Network.agg[0] "max_cache_size: " 1500
scalar Network.agg[0] "push threshold: " 2500000000
scalar Network.dest "run_elephant: " 0
scalar Network.dest "run_push: " 1
scalar Network.dest "cache_size: " 2222
scalar Network.dest "scale: " 1
scalar Network.dest "total_rate_in_tor: " 1600000000000
scalar Network.controller "INTERVAL: " 0.0001
scalar Network.controller "insertion_rate: " 64994025
statistic Network.controller Total_bandwidth_hist
field count 1200
field mean 261.5971
field stddev 35.017351260927
field min 224.88
field max 1321.2
field sum 313916.52
field sqrsum 83589882.9264
bin	-inf	0
bin	0	0
bin	20	0
bin	40	0
bin	60	0
bin	80	0
bin	100	0
bin	120	0
bin	140	0
bin	160	0
bin	180	0
bin	200	0
bin	220	68
bin	240	522
bin	260	534
bin	280	71
bin	300	1
bin	320	1
bin	340	0
bin	360	0
bin	380	0
bin	400	0
bin	420	0
bin	440	1
bin	460	0
bin	480	0
bin	500	0
bin	520	0
bin	540	0
bin	560	0
bin	580	1
bin	600	0
bin	620	0
bin	640	0
bin	660	0
bin	680	0
bin	700	0
bin	720	0
bin	740	0
bin	760	0
bin	780	0
bin	800	0
bin	820	0
bin	840	0
bin	860	0
bin	880	0
bin	900	0
bin	920	0
bin	940	0
bin	960	0
bin	980	0
bin	1000	0
bin	1020	0
bin	1040	0
bin	1060	0
bin	1080	0
bin	1100	0
bin	1120	0
bin	1140	0
bin	1160	0
bin	1180	0
bin	1200	0
bin	1220	0
bin	1240	0
bin	1260	0
bin	1280	0
bin	1300	0
bin	1320	1
bin	1340	0
bin	1360	0
bin	1380	0
bin	1400	0
bin	1420	0
bin	1440	0
bin	1460	0
bin	1480	0
bin	1500	0
bin	1520	0
bin	1540	0
bin	1560	0
bin	1580	0
bin	1600	0
statistic Network.rack[0].hub "bandwidth hist"
field count 1200
field mean 318737700000
field stddev 18816081423.706
field min 268800000000
field max 386400000000
field sum 3.8248524e+014
field sqrsum 1.223369655408e+026
bin	-inf	0
bin	268000000000	1
bin	270000000000	0
bin	272000000000	2
bin	274000000000	1
bin	276000000000	1
bin	278000000000	4
bin	280000000000	7
bin	282000000000	7
bin	284000000000	18
bin	286000000000	8
bin	288000000000	12
bin	290000000000	28
bin	292000000000	25
bin	294000000000	17
bin	296000000000	23
bin	298000000000	29
bin	300000000000	36
bin	302000000000	39
bin	304000000000	46
bin	306000000000	40
bin	308000000000	59
bin	310000000000	51
bin	312000000000	54
bin	314000000000	59
bin	316000000000	47
bin	318000000000	53
bin	320000000000	48
bin	322000000000	56
bin	324000000000	32
bin	326000000000	43
bin	328000000000	41
bin	330000000000	35
bin	332000000000	32
bin	334000000000	31
bin	336000000000	24
bin	338000000000	36
bin	340000000000	22
bin	342000000000	20
bin	344000000000	18
bin	346000000000	10
bin	348000000000	7
bin	350000000000	7
bin	352000000000	8
bin	354000000000	10
bin	356000000000	12
bin	358000000000	10
bin	360000000000	6
bin	362000000000	12
bin	364000000000	6
bin	366000000000	2
bin	368000000000	2
bin	370000000000	1
bin	372000000000	0
bin	374000000000	0
bin	376000000000	0
bin	378000000000	1
bin	380000000000	0
bin	382000000000	0
bin	384000000000	0
bin	386000000000	1
bin	388000000000	0
statistic Network.rack[1].hub "bandwidth hist"
field count 1200
field mean 308207500000
field stddev 14659014564.652
field min 259800000000
field max 358560000000
field sum 3.69849e+014
field sqrsum 1.142478848304e+026
bin	-inf	0
bin	250000000000	0
bin	252000000000	0
bin	254000000000	0
bin	256000000000	0
bin	258000000000	1
bin	260000000000	0
bin	262000000000	0
bin	264000000000	0
bin	266000000000	1
bin	268000000000	0
bin	270000000000	4
bin	272000000000	5
bin	274000000000	6
bin	276000000000	3
bin	278000000000	8
bin	280000000000	8
bin	282000000000	16
bin	284000000000	17
bin	286000000000	14
bin	288000000000	18
bin	290000000000	39
bin	292000000000	42
bin	294000000000	50
bin	296000000000	55
bin	298000000000	57
bin	300000000000	58
bin	302000000000	66
bin	304000000000	80
bin	306000000000	82
bin	308000000000	63
bin	310000000000	77
bin	312000000000	62
bin	314000000000	53
bin	316000000000	41
bin	318000000000	36
bin	320000000000	31
bin	322000000000	38
bin	324000000000	24
bin	326000000000	25
bin	328000000000	23
bin	330000000000	14
bin	332000000000	19
bin	334000000000	11
bin	336000000000	16
bin	338000000000	6
bin	340000000000	8
bin	342000000000	7
bin	344000000000	4
bin	346000000000	2
bin	348000000000	5
bin	350000000000	4
bin	352000000000	0
bin	354000000000	0
bin	356000000000	0
bin	358000000000	1
bin	360000000000	0
statistic Network.rack[2].hub "bandwidth hist"
field count 1200
field mean 323963900000
field stddev 19556099243.923
field min 271440000000
field max 386520000000
field sum 3.8875668e+014
field sqrsum 1.26401676984e+026
bin	-inf	0
bin	254000000000	0
bin	256000000000	0
bin	258000000000	0
bin	260000000000	0
bin	262000000000	0
bin	264000000000	0
bin	266000000000	0
bin	268000000000	0
bin	270000000000	2
bin	272000000000	3
bin	274000000000	2
bin	276000000000	1
bin	278000000000	1
bin	280000000000	3
bin	282000000000	4
bin	284000000000	3
bin	286000000000	6
bin	288000000000	11
bin	290000000000	13
bin	292000000000	15
bin	294000000000	15
bin	296000000000	25
bin	298000000000	27
bin	300000000000	25
bin	302000000000	30
bin	304000000000	35
bin	306000000000	43
bin	308000000000	40
bin	310000000000	35
bin	312000000000	40
bin	314000000000	64
bin	316000000000	43
bin	318000000000	54
bin	320000000000	41
bin	322000000000	44
bin	324000000000	42
bin	326000000000	41
bin	328000000000	43
bin	330000000000	42
bin	332000000000	39
bin	334000000000	42
bin	336000000000	33
bin	338000000000	37
bin	340000000000	33
bin	342000000000	20
bin	344000000000	33
bin	346000000000	19
bin	348000000000	30
bin	350000000000	28
bin	352000000000	16
bin	354000000000	16
bin	356000000000	12
bin	358000000000	9
bin	360000000000	6
bin	362000000000	8
bin	364000000000	5
bin	366000000000	3
bin	368000000000	4
bin	370000000000	2
bin	372000000000	2
bin	374000000000	1
bin	376000000000	3
bin	378000000000	2
bin	380000000000	1
bin	382000000000	1
bin	384000000000	1
bin	386000000000	1
bin	388000000000	0
statistic Network.rack[3].hub "bandwidth hist"
field count 1200
field mean 324592700000
field stddev 19228916889.607
field min 279720000000
field max 403320000000
field sum 3.8951124e+014
field sqrsum 1.268758368144e+026
bin	-inf	0
bin	278000000000	1
bin	280000000000	1
bin	282000000000	6
bin	284000000000	4
bin	286000000000	3
bin	288000000000	9
bin	290000000000	12
bin	292000000000	11
bin	294000000000	11
bin	296000000000	17
bin	298000000000	29
bin	300000000000	28
bin	302000000000	41
bin	304000000000	32
bin	306000000000	38
bin	308000000000	42
bin	310000000000	38
bin	312000000000	42
bin	314000000000	37
bin	316000000000	33
bin	318000000000	53
bin	320000000000	60
bin	322000000000	45
bin	324000000000	50
bin	326000000000	58
bin	328000000000	41
bin	330000000000	57
bin	332000000000	56
bin	334000000000	45
bin	336000000000	48
bin	338000000000	44
bin	340000000000	24
bin	342000000000	28
bin	344000000000	28
bin	346000000000	22
bin	348000000000	12
bin	350000000000	22
bin	352000000000	11
bin	354000000000	6
bin	356000000000	11
bin	358000000000	6
bin	360000000000	4
bin	362000000000	4
bin	364000000000	2
bin	366000000000	2
bin	368000000000	0
bin	370000000000	0
bin	372000000000	1
bin	374000000000	1
bin	376000000000	2
bin	378000000000	2
bin	380000000000	0
bin	382000000000	2
bin	384000000000	4
bin	386000000000	1
bin	388000000000	0
bin	390000000000	1
bin	392000000000	2
bin	394000000000	4
bin	396000000000	1
bin	398000000000	1
bin	400000000000	2
bin	402000000000	2
bin	404000000000	0
statistic Network.rack[4].hub "bandwidth hist"
field count 1200
field mean 303658000000
field stddev 17930659993.612
field min 254160000000
field max 390360000000
field sum 3.643896e+014
field sqrsum 1.110353059296e+026
bin	-inf	0
bin	251000000000	0
bin	253000000000	1
bin	255000000000	0
bin	257000000000	1
bin	259000000000	0
bin	261000000000	1
bin	263000000000	1
bin	265000000000	6
bin	267000000000	4
bin	269000000000	6
bin	271000000000	9
bin	273000000000	13
bin	275000000000	15
bin	277000000000	16
bin	279000000000	26
bin	281000000000	28
bin	283000000000	21
bin	285000000000	33
bin	287000000000	49
bin	289000000000	45
bin	291000000000	49
bin	293000000000	58
bin	295000000000	41
bin	297000000000	75
bin	299000000000	69
bin	301000000000	53
bin	303000000000	64
bin	305000000000	62
bin	307000000000	56
bin	309000000000	57
bin	311000000000	47
bin	313000000000	36
bin	315000000000	37
bin	317000000000	38
bin	319000000000	19
bin	321000000000	24
bin	323000000000	17
bin	325000000000	12
bin	327000000000	19
bin	329000000000	15
bin	331000000000	11
bin	333000000000	9
bin	335000000000	8
bin	337000000000	4
bin	339000000000	4
bin	341000000000	3
bin	343000000000	1
bin	345000000000	4
bin	347000000000	5
bin	349000000000	0
bin	351000000000	2
bin	353000000000	4
bin	355000000000	3
bin	357000000000	4
bin	359000000000	2
bin	361000000000	4
bin	363000000000	1
bin	365000000000	1
bin	367000000000	0
bin	369000000000	4
bin	371000000000	0
bin	373000000000	0
bin	375000000000	0
bin	377000000000	1
bin	379000000000	1
bin	381000000000	0
bin	383000000000	0
bin	385000000000	0
bin	387000000000	0
bin	389000000000	1
bin	391000000000	0
statistic Network.rack[5].hub "bandwidth hist"
field count 1200
field mean 308728100000
field stddev 21861888105.02
field min 267960000000
field max 381240000000
field sum 3.7047372e+014
field sqrsum 1.149487003152e+026
bin	-inf	0
bin	264000000000	0
bin	266000000000	1
bin	268000000000	2
bin	270000000000	6
bin	272000000000	6
bin	274000000000	6
bin	276000000000	11
bin	278000000000	23
bin	280000000000	21
bin	282000000000	35
bin	284000000000	42
bin	286000000000	47
bin	288000000000	43
bin	290000000000	52
bin	292000000000	44
bin	294000000000	54
bin	296000000000	56
bin	298000000000	43
bin	300000000000	38
bin	302000000000	49
bin	304000000000	48
bin	306000000000	45
bin	308000000000	50
bin	310000000000	43
bin	312000000000	35
bin	314000000000	44
bin	316000000000	17
bin	318000000000	29
bin	320000000000	29
bin	322000000000	19
bin	324000000000	21
bin	326000000000	19
bin	328000000000	16
bin	330000000000	18
bin	332000000000	13
bin	334000000000	13
bin	336000000000	12
bin	338000000000	16
bin	340000000000	14
bin	342000000000	8
bin	344000000000	7
bin	346000000000	15
bin	348000000000	17
bin	350000000000	12
bin	352000000000	10
bin	354000000000	13
bin	356000000000	8
bin	358000000000	5
bin	360000000000	6
bin	362000000000	4
bin	364000000000	1
bin	366000000000	1
bin	368000000000	3
bin	370000000000	2
bin	372000000000	1
bin	374000000000	2
bin	376000000000	0
bin	378000000000	1
bin	380000000000	4
bin	382000000000	0
bin	384000000000	0
bin	386000000000	0
bin	388000000000	0
bin	390000000000	0
statistic Network.rack[6].hub "bandwidth hist"
field count 1200
field mean 313123100000
field stddev 26801432344.243
field min 252120000000
field max 413880000000
field sum 3.7574772e+014
field sqrsum 1.185165527184e+026
bin	-inf	0
bin	239000000000	0
bin	241000000000	0
bin	243000000000	0
bin	245000000000	0
bin	247000000000	0
bin	249000000000	0
bin	251000000000	1
bin	253000000000	1
bin	255000000000	1
bin	257000000000	2
bin	259000000000	0
bin	261000000000	2
bin	263000000000	9
bin	265000000000	5
bin	267000000000	12
bin	269000000000	12
bin	271000000000	14
bin	273000000000	15
bin	275000000000	18
bin	277000000000	21
bin	279000000000	22
bin	281000000000	33
bin	283000000000	17
bin	285000000000	23
bin	287000000000	29
bin	289000000000	26
bin	291000000000	28
bin	293000000000	25
bin	295000000000	29
bin	297000000000	35
bin	299000000000	21
bin	301000000000	36
bin	303000000000	31
bin	305000000000	38
bin	307000000000	42
bin	309000000000	29
bin	311000000000	33
bin	313000000000	47
bin	315000000000	41
bin	317000000000	36
bin	319000000000	39
bin	321000000000	47
bin	323000000000	31
bin	325000000000	31
bin	327000000000	32
bin	329000000000	25
bin	331000000000	20
bin	333000000000	15
bin	335000000000	21
bin	337000000000	17
bin	339000000000	11
bin	341000000000	15
bin	343000000000	21
bin	345000000000	17
bin	347000000000	19
bin	349000000000	12
bin	351000000000	13
bin	353000000000	7
bin	355000000000	6
bin	357000000000	9
bin	359000000000	3
bin	361000000000	5
bin	363000000000	8
bin	365000000000	3
bin	367000000000	0
bin	369000000000	4
bin	371000000000	4
bin	373000000000	0
bin	375000000000	0
bin	377000000000	1
bin	379000000000	3
bin	381000000000	3
bin	383000000000	2
bin	385000000000	2
bin	387000000000	0
bin	389000000000	3
bin	391000000000	1
bin	393000000000	6
bin	395000000000	2
bin	397000000000	1
bin	399000000000	2
bin	401000000000	3
bin	403000000000	1
bin	405000000000	0
bin	407000000000	0
bin	409000000000	0
bin	411000000000	0
bin	413000000000	1
bin	415000000000	0
statistic Network.rack[7].hub "bandwidth hist"
field count 1200
field mean 306211300000
field stddev 12575453444.492
field min 266160000000
field max 363600000000
field sum 3.6745356e+014
field sqrsum 1.127080445904e+026
bin	-inf	0
bin	254000000000	0
bin	256000000000	0
bin	258000000000	0
bin	260000000000	0
bin	262000000000	0
bin	264000000000	0
bin	266000000000	1
bin	268000000000	0
bin	270000000000	1
bin	272000000000	3
bin	274000000000	2
bin	276000000000	4
bin	278000000000	8
bin	280000000000	7
bin	282000000000	17
bin	284000000000	22
bin	286000000000	26
bin	288000000000	21
bin	290000000000	42
bin	292000000000	29
bin	294000000000	65
bin	296000000000	75
bin	298000000000	56
bin	300000000000	69
bin	302000000000	64
bin	304000000000	90
bin	306000000000	80
bin	308000000000	80
bin	310000000000	54
bin	312000000000	54
bin	314000000000	72
bin	316000000000	53
bin	318000000000	35
bin	320000000000	44
bin	322000000000	36
bin	324000000000	21
bin	326000000000	16
bin	328000000000	18
bin	330000000000	10
bin	332000000000	9
bin	334000000000	4
bin	336000000000	3
bin	338000000000	3
bin	340000000000	1
bin	342000000000	1
bin	344000000000	0
bin	346000000000	0
bin	348000000000	1
bin	350000000000	2
bin	352000000000	0
bin	354000000000	0
bin	356000000000	0
bin	358000000000	0
bin	360000000000	0
bin	362000000000	1
bin	364000000000	0
statistic Network.rack[8].hub "bandwidth hist"
field count 1200
field mean 315373600000
field stddev 23280870963.822
field min 269880000000
field max 405480000000
field sum 3.7844832e+014
field sqrsum 1.200024658368e+026
bin	-inf	0
bin	265000000000	0
bin	267000000000	0
bin	269000000000	2
bin	271000000000	3
bin	273000000000	2
bin	275000000000	3
bin	277000000000	6
bin	279000000000	9
bin	281000000000	17
bin	283000000000	17
bin	285000000000	27
bin	287000000000	39
bin	289000000000	29
bin	291000000000	48
bin	293000000000	40
bin	295000000000	45
bin	297000000000	47
bin	299000000000	37
bin	301000000000	43
bin	303000000000	42
bin	305000000000	46
bin	307000000000	44
bin	309000000000	38
bin	311000000000	39
bin	313000000000	36
bin	315000000000	45
bin	317000000000	29
bin	319000000000	33
bin	321000000000	36
bin	323000000000	43
bin	325000000000	38
bin	327000000000	31
bin	329000000000	29
bin	331000000000	28
bin	333000000000	23
bin	335000000000	12
bin	337000000000	16
bin	339000000000	13
bin	341000000000	12
bin	343000000000	9
bin	345000000000	11
bin	347000000000	15
bin	349000000000	6
bin	351000000000	8
bin	353000000000	7
bin	355000000000	13
bin	357000000000	11
bin	359000000000	9
bin	361000000000	11
bin	363000000000	7
bin	365000000000	9
bin	367000000000	4
bin	369000000000	4
bin	371000000000	4
bin	373000000000	1
bin	375000000000	4
bin	377000000000	4
bin	379000000000	6
bin	381000000000	3
bin	383000000000	2
bin	385000000000	2
bin	387000000000	0
bin	389000000000	1
bin	391000000000	0
bin	393000000000	0
bin	395000000000	0
bin	397000000000	0
bin	399000000000	0
bin	401000000000	0
bin	403000000000	1
bin	405000000000	1
bin	407000000000	0
statistic Network.rack[9].hub "bandwidth hist"
field count 1200
field mean 322092300000
field stddev 20288242885.38
field min 276360000000
field max 396840000000
field sum 3.8651076e+014
field sqrsum 1.249856634096e+026
bin	-inf	0
bin	276000000000	1
bin	278000000000	1
bin	280000000000	3
bin	282000000000	7
bin	284000000000	5
bin	286000000000	13
bin	288000000000	16
bin	290000000000	20
bin	292000000000	18
bin	294000000000	24
bin	296000000000	26
bin	298000000000	28
bin	300000000000	34
bin	302000000000	45
bin	304000000000	45
bin	306000000000	46
bin	308000000000	48
bin	310000000000	40
bin	312000000000	46
bin	314000000000	46
bin	316000000000	39
bin	318000000000	48
bin	320000000000	43
bin	322000000000	31
bin	324000000000	32
bin	326000000000	27
bin	328000000000	41
bin	330000000000	41
bin	332000000000	35
bin	334000000000	48
bin	336000000000	39
bin	338000000000	29
bin	340000000000	27
bin	342000000000	26
bin	344000000000	34
bin	346000000000	18
bin	348000000000	17
bin	350000000000	18
bin	352000000000	16
bin	354000000000	12
bin	356000000000	13
bin	358000000000	10
bin	360000000000	9
bin	362000000000	5
bin	364000000000	5
bin	366000000000	4
bin	368000000000	3
bin	370000000000	3
bin	372000000000	5
bin	374000000000	2
bin	376000000000	1
bin	378000000000	0
bin	380000000000	1
bin	382000000000	2
bin	384000000000	2
bin	386000000000	0
bin	388000000000	1
bin	390000000000	0
bin	392000000000	0
bin	394000000000	0
bin	396000000000	1
bin	398000000000	0
scalar Network.tor[0] "Bandwidth: " 0
statistic Network.tor[0] "flow count"
field count 1200
field mean 658.34
field stddev 19.581383816271
field min 598
field max 705
field sum 790008
field sqrsum 520553600
bin	-inf	0
bin	597	1
bin	599	2
bin	601	0
bin	603	2
bin	605	5
bin	607	2
bin	609	8
bin	611	6
bin	613	5
bin	615	11
bin	617	4
bin	619	14
bin	621	6
bin	623	12
bin	625	8
bin	627	14
bin	629	14
bin	631	10
bin	633	21
bin	635	17
bin	637	26
bin	639	26
bin	641	17
bin	643	27
bin	645	36
bin	647	41
bin	649	45
bin	651	38
bin	653	36
bin	655	48
bin	657	61
bin	659	52
bin	661	52
bin	663	48
bin	665	45
bin	667	51
bin	669	48
bin	671	46
bin	673	62
bin	675	31
bin	677	25
bin	679	31
bin	681	32
bin	683	26
bin	685	19
bin	687	22
bin	689	7
bin	691	11
bin	693	8
bin	695	4
bin	697	2
bin	699	8
bin	701	3
bin	703	2
bin	705	2
bin	707	0
statistic Network.tor[0] cache_occupancy
field count 1200
field mean 300
field stddev 0
field min 300
field max 300
field sum 360000
field sqrsum 108000000
bin	-inf	0
bin	299	0
bin	300	1200
bin	301	0
statistic Network.tor[0] activity_time_of_a_rule_A
field count 93660
field mean 0.00018360257458556
field stddev 0.00091301193898438
field min 0
field max 0.03292198046
field sum 17.196217135684
field sqrsum 0.08123055054463
bin	-inf	0
bin	-0.5	0
bin	-0.48	0
bin	-0.46	0
bin	-0.44	0
bin	-0.42	0
bin	-0.4	0
bin	-0.38	0
bin	-0.36	0
bin	-0.34	0
bin	-0.32	0
bin	-0.3	0
bin	-0.28	0
bin	-0.26	0
bin	-0.24	0
bin	-0.22	0
bin	-0.2	0
bin	-0.18	0
bin	-0.16	0
bin	-0.14	0
bin	-0.12	0
bin	-0.1	0
bin	-0.08	0
bin	-0.06	0
bin	-0.04	0
bin	-0.02	0
bin	0	93653
bin	0.02	7
bin	0.04	0
bin	0.06	0
bin	0.08	0
bin	0.1	0
bin	0.12	0
bin	0.14	0
bin	0.16	0
bin	0.18	0
bin	0.2	0
bin	0.22	0
bin	0.24	0
bin	0.26	0
bin	0.28	0
bin	0.3	0
bin	0.32	0
bin	0.34	0
bin	0.36	0
bin	0.38	0
bin	0.4	0
bin	0.42	0
bin	0.44	0
bin	0.46	0
bin	0.48	0
bin	0.5	0
statistic Network.tor[0] activity_time_of_a_rule_B
field count 588543
field mean 1.3179595118812e-005
field stddev 0.00011404163329861
field min 0
field max 0.007602929824
field sum 7.756758450011
field sqrsum 0.0077565104593658
bin	-inf	0
bin	-0.5	0
bin	-0.48	0
bin	-0.46	0
bin	-0.44	0
bin	-0.42	0
bin	-0.4	0
bin	-0.38	0
bin	-0.36	0
bin	-0.34	0
bin	-0.32	0
bin	-0.3	0
bin	-0.28	0
bin	-0.26	0
bin	-0.24	0
bin	-0.22	0
bin	-0.2	0
bin	-0.18	0
bin	-0.16	0
bin	-0.14	0
bin	-0.12	0
bin	-0.1	0
bin	-0.08	0
bin	-0.06	0
bin	-0.04	0
bin	-0.02	0
bin	0	588543
bin	0.02	0
bin	0.04	0
bin	0.06	0
bin	0.08	0
bin	0.1	0
bin	0.12	0
bin	0.14	0
bin	0.16	0
bin	0.18	0
bin	0.2	0
bin	0.22	0
bin	0.24	0
bin	0.26	0
bin	0.28	0
bin	0.3	0
bin	0.32	0
bin	0.34	0
bin	0.36	0
bin	0.38	0
bin	0.4	0
bin	0.42	0
bin	0.44	0
bin	0.46	0
bin	0.48	0
bin	0.5	0
statistic Network.tor[0] bandwidth_histogram
field count 1200
field mean 318.7346
field stddev 18.83349321188
field min 270.12
field max 386.76
field sum 382481.52
field sqrsum 122335380.144
bin	-inf	0
bin	270	1
bin	272	0
bin	274	3
bin	276	3
bin	278	3
bin	280	8
bin	282	7
bin	284	15
bin	286	8
bin	288	16
bin	290	28
bin	292	21
bin	294	19
bin	296	22
bin	298	26
bin	300	44
bin	302	37
bin	304	47
bin	306	35
bin	308	63
bin	310	44
bin	312	58
bin	314	60
bin	316	49
bin	318	43
bin	320	61
bin	322	46
bin	324	42
bin	326	40
bin	328	44
bin	330	27
bin	332	34
bin	334	32
bin	336	25
bin	338	33
bin	340	23
bin	342	17
bin	344	21
bin	346	9
bin	348	9
bin	350	4
bin	352	11
bin	354	9
bin	356	14
bin	358	5
bin	360	11
bin	362	9
bin	364	8
bin	366	0
bin	368	3
bin	370	1
bin	372	0
bin	374	0
bin	376	1
bin	378	0
bin	380	0
bin	382	0
bin	384	0
bin	386	1
bin	388	0
scalar Network.tor[0] "cache_content_by_app: " 0.62040816326531
scalar Network.tor[1] "Bandwidth: " 0
statistic Network.tor[1] "flow count"
field count 1200
field mean 626.61916666667
field stddev 15.311199386759
field min 567
field max 677
field sum 751943
field sqrsum 471462981
bin	-inf	0
bin	553	0
bin	555	0
bin	557	0
bin	559	0
bin	561	0
bin	563	0
bin	565	0
bin	567	1
bin	569	0
bin	571	0
bin	573	1
bin	575	0
bin	577	0
bin	579	0
bin	581	0
bin	583	3
bin	585	0
bin	587	1
bin	589	4
bin	591	3
bin	593	8
bin	595	6
bin	597	13
bin	599	15
bin	601	13
bin	603	19
bin	605	25
bin	607	34
bin	609	24
bin	611	32
bin	613	56
bin	615	49
bin	617	41
bin	619	66
bin	621	64
bin	623	52
bin	625	65
bin	627	71
bin	629	51
bin	631	63
bin	633	54
bin	635	60
bin	637	42
bin	639	48
bin	641	39
bin	643	32
bin	645	27
bin	647	32
bin	649	17
bin	651	14
bin	653	14
bin	655	15
bin	657	3
bin	659	8
bin	661	6
bin	663	3
bin	665	0
bin	667	0
bin	669	0
bin	671	2
bin	673	2
bin	675	1
bin	677	1
bin	679	0
statistic Network.tor[1] cache_occupancy
field count 1200
field mean 300
field stddev 0
field min 300
field max 300
field sum 360000
field sqrsum 108000000
bin	-inf	0
bin	299	0
bin	300	1200
bin	301	0
statistic Network.tor[1] activity_time_of_a_rule_A
field count 90396
field mean 0.0001833838872277
field stddev 0.0011467284547673
field min 0
field max 0.048453081449
field sum 16.577169869835
field sqrsum 0.12190815878638
bin	-inf	0
bin	-0.5	0
bin	-0.48	0
bin	-0.46	0
bin	-0.44	0
bin	-0.42	0
bin	-0.4	0
bin	-0.38	0
bin	-0.36	0
bin	-0.34	0
bin	-0.32	0
bin	-0.3	0
bin	-0.28	0
bin	-0.26	0
bin	-0.24	0
bin	-0.22	0
bin	-0.2	0
bin	-0.18	0
bin	-0.16	0
bin	-0.14	0
bin	-0.12	0
bin	-0.1	0
bin	-0.08	0
bin	-0.06	0
bin	-0.04	0
bin	-0.02	0
bin	0	90361
bin	0.02	32
bin	0.04	3
bin	0.06	0
bin	0.08	0
bin	0.1	0
bin	0.12	0
bin	0.14	0
bin	0.16	0
bin	0.18	0
bin	0.2	0
bin	0.22	0
bin	0.24	0
bin	0.26	0
bin	0.28	0
bin	0.3	0
bin	0.32	0
bin	0.34	0
bin	0.36	0
bin	0.38	0
bin	0.4	0
bin	0.42	0
bin	0.44	0
bin	0.46	0
bin	0.48	0
bin	0.5	0
statistic Network.tor[1] activity_time_of_a_rule_B
field count 585157
field mean 1.3879789734746e-005
field stddev 0.0001286898007343
field min 0
field max 0.009531095423
field sum 8.121856121815
field sqrsum 0.0098035360969621
bin	-inf	0
bin	-0.5	0
bin	-0.48	0
bin	-0.46	0
bin	-0.44	0
bin	-0.42	0
bin	-0.4	0
bin	-0.38	0
bin	-0.36	0
bin	-0.34	0
bin	-0.32	0
bin	-0.3	0
bin	-0.28	0
bin	-0.26	0
bin	-0.24	0
bin	-0.22	0
bin	-0.2	0
bin	-0.18	0
bin	-0.16	0
bin	-0.14	0
bin	-0.12	0
bin	-0.1	0
bin	-0.08	0
bin	-0.06	0
bin	-0.04	0
bin	-0.02	0
bin	0	585157
bin	0.02	0
bin	0.04	0
bin	0.06	0
bin	0.08	0
bin	0.1	0
bin	0.12	0
bin	0.14	0
bin	0.16	0
bin	0.18	0
bin	0.2	0
bin	0.22	0
bin	0.24	0
bin	0.26	0
bin	0.28	0
bin	0.3	0
bin	0.32	0
bin	0.34	0
bin	0.36	0
bin	0.38	0
bin	0.4	0
bin	0.42	0
bin	0.44	0
bin	0.46	0
bin	0.48	0
bin	0.5	0
statistic Network.tor[1] bandwidth_histogram
field count 1200
field mean 308.2043
field stddev 14.649916161746
field min 261.12
field max 358.32
field sum 369845.16
field sqrsum 114245198.0784
bin	-inf	0
bin	250	0
bin	252	0
bin	254	0
bin	256	0
bin	258	0
bin	260	1
bin	262	0
bin	264	0
bin	266	1
bin	268	0
bin	270	3
bin	272	5
bin	274	9
bin	276	3
bin	278	9
bin	280	8
bin	282	10
bin	284	18
bin	286	18
bin	288	18
bin	290	42
bin	292	37
bin	294	47
bin	296	65
bin	298	45
bin	300	63
bin	302	71
bin	304	76
bin	306	76
bin	308	73
bin	310	68
bin	312	68
bin	314	47
bin	316	39
bin	318	46
bin	320	26
bin	322	39
bin	324	30
bin	326	23
bin	328	17
bin	330	14
bin	332	21
bin	334	13
bin	336	15
bin	338	7
bin	340	9
bin	342	3
bin	344	6
bin	346	2
bin	348	4
bin	350	2
bin	352	2
bin	354	0
bin	356	0
bin	358	1
bin	360	0
scalar Network.tor[1] "cache_content_by_app: " 0.65400843881857
scalar Network.tor[2] "Bandwidth: " 0
statistic Network.tor[2] "flow count"
field count 1200
field mean 636.57166666667
field stddev 19.158394172745
field min 585
field max 694
field sum 763886
field sqrsum 486708270
bin	-inf	0
bin	584	2
bin	586	3
bin	588	1
bin	590	4
bin	592	2
bin	594	10
bin	596	4
bin	598	7
bin	600	8
bin	602	17
bin	604	6
bin	606	9
bin	608	17
bin	610	14
bin	612	26
bin	614	26
bin	616	30
bin	618	27
bin	620	22
bin	622	38
bin	624	42
bin	626	48
bin	628	50
bin	630	53
bin	632	62
bin	634	57
bin	636	60
bin	638	67
bin	640	49
bin	642	45
bin	644	53
bin	646	39
bin	648	41
bin	650	29
bin	652	24
bin	654	16
bin	656	20
bin	658	20
bin	660	22
bin	662	27
bin	664	15
bin	666	8
bin	668	13
bin	670	14
bin	672	10
bin	674	10
bin	676	2
bin	678	6
bin	680	5
bin	682	5
bin	684	4
bin	686	2
bin	688	3
bin	690	2
bin	692	3
bin	694	1
bin	696	0
statistic Network.tor[2] cache_occupancy
field count 1200
field mean 300
field stddev 0
field min 300
field max 300
field sum 360000
field sqrsum 108000000
bin	-inf	0
bin	299	0
bin	300	1200
bin	301	0
statistic Network.tor[2] activity_time_of_a_rule_A
field count 91672
field mean 0.00018420405960186
field stddev 0.0010135189416144
field min 0
field max 0.032460648039
field sum 16.886354551822
field sqrsum 0.097276878809141
bin	-inf	0
bin	-0.5	0
bin	-0.48	0
bin	-0.46	0
bin	-0.44	0
bin	-0.42	0
bin	-0.4	0
bin	-0.38	0
bin	-0.36	0
bin	-0.34	0
bin	-0.32	0
bin	-0.3	0
bin	-0.28	0
bin	-0.26	0
bin	-0.24	0
bin	-0.22	0
bin	-0.2	0
bin	-0.18	0
bin	-0.16	0
bin	-0.14	0
bin	-0.12	0
bin	-0.1	0
bin	-0.08	0
bin	-0.06	0
bin	-0.04	0
bin	-0.02	0
bin	0	91654
bin	0.02	18
bin	0.04	0
bin	0.06	0
bin	0.08	0
bin	0.1	0
bin	0.12	0
bin	0.14	0
bin	0.16	0
bin	0.18	0
bin	0.2	0
bin	0.22	0
bin	0.24	0
bin	0.26	0
bin	0.28	0
bin	0.3	0
bin	0.32	0
bin	0.34	0
bin	0.36	0
bin	0.38	0
bin	0.4	0
bin	0.42	0
bin	0.44	0
bin	0.46	0
bin	0.48	0
bin	0.5	0
statistic Network.tor[2] activity_time_of_a_rule_B
field count 587165
field mean 1.3579619333896e-005
field stddev 0.00012172301140909
field min 0
field max 0.008843270541
field sum 7.973477186187
field sqrsum 0.0088079872038773
bin	-inf	0
bin	-0.5	0
bin	-0.48	0
bin	-0.46	0
bin	-0.44	0
bin	-0.42	0
bin	-0.4	0
bin	-0.38	0
bin	-0.36	0
bin	-0.34	0
bin	-0.32	0
bin	-0.3	0
bin	-0.28	0
bin	-0.26	0
bin	-0.24	0
bin	-0.22	0
bin	-0.2	0
bin	-0.18	0
bin	-0.16	0
bin	-0.14	0
bin	-0.12	0
bin	-0.1	0
bin	-0.08	0
bin	-0.06	0
bin	-0.04	0
bin	-0.02	0
bin	0	587165
bin	0.02	0
bin	0.04	0
bin	0.06	0
bin	0.08	0
bin	0.1	0
bin	0.12	0
bin	0.14	0
bin	0.16	0
bin	0.18	0
bin	0.2	0
bin	0.22	0
bin	0.24	0
bin	0.26	0
bin	0.28	0
bin	0.3	0
bin	0.32	0
bin	0.34	0
bin	0.36	0
bin	0.38	0
bin	0.4	0
bin	0.42	0
bin	0.44	0
bin	0.46	0
bin	0.48	0
bin	0.5	0
statistic Network.tor[2] bandwidth_histogram
field count 1200
field mean 323.961
field stddev 19.553456720609
field min 271.68
field max 385.56
field sum 388753.2
field sqrsum 126399298.2912
bin	-inf	0
bin	256	0
bin	258	0
bin	260	0
bin	262	0
bin	264	0
bin	266	0
bin	268	0
bin	270	3
bin	272	3
bin	274	1
bin	276	0
bin	278	3
bin	280	0
bin	282	6
bin	284	4
bin	286	6
bin	288	12
bin	290	11
bin	292	12
bin	294	18
bin	296	23
bin	298	29
bin	300	25
bin	302	29
bin	304	34
bin	306	45
bin	308	37
bin	310	33
bin	312	46
bin	314	57
bin	316	50
bin	318	50
bin	320	46
bin	322	40
bin	324	45
bin	326	42
bin	328	41
bin	330	42
bin	332	43
bin	334	38
bin	336	33
bin	338	33
bin	340	35
bin	342	23
bin	344	32
bin	346	26
bin	348	24
bin	350	24
bin	352	17
bin	354	19
bin	356	11
bin	358	10
bin	360	8
bin	362	5
bin	364	5
bin	366	3
bin	368	4
bin	370	3
bin	372	1
bin	374	1
bin	376	2
bin	378	2
bin	380	2
bin	382	1
bin	384	2
bin	386	0
scalar Network.tor[2] "cache_content_by_app: " 0.67083333333333
scalar Network.tor[3] "Bandwidth: " 0
statistic Network.tor[3] "flow count"
field count 1200
field mean 636.5425
field stddev 17.515150894079
field min 587
field max 682
field sum 763851
field sqrsum 486591455
bin	-inf	0
bin	587	1
bin	589	0
bin	591	0
bin	593	3
bin	595	3
bin	597	4
bin	599	8
bin	601	11
bin	603	12
bin	605	14
bin	607	12
bin	609	17
bin	611	20
bin	613	22
bin	615	27
bin	617	35
bin	619	35
bin	621	31
bin	623	52
bin	625	47
bin	627	47
bin	629	46
bin	631	63
bin	633	48
bin	635	53
bin	637	49
bin	639	54
bin	641	49
bin	643	44
bin	645	38
bin	647	43
bin	649	39
bin	651	32
bin	653	42
bin	655	26
bin	657	39
bin	659	25
bin	661	24
bin	663	20
bin	665	10
bin	667	16
bin	669	7
bin	671	7
bin	673	10
bin	675	7
bin	677	2
bin	679	2
bin	681	4
bin	683	0
statistic Network.tor[3] cache_occupancy
field count 1200
field mean 300
field stddev 0
field min 300
field max 300
field sum 360000
field sqrsum 108000000
bin	-inf	0
bin	299	0
bin	300	1200
bin	301	0
statistic Network.tor[3] activity_time_of_a_rule_A
field count 92712
field mean 0.00018830110087659
field stddev 0.00098626186869495
field min 0
field max 0.03790468076
field sum 17.45777166447
field sqrsum 0.093468463767063
bin	-inf	0
bin	-0.5	0
bin	-0.48	0
bin	-0.46	0
bin	-0.44	0
bin	-0.42	0
bin	-0.4	0
bin	-0.38	0
bin	-0.36	0
bin	-0.34	0
bin	-0.32	0
bin	-0.3	0
bin	-0.28	0
bin	-0.26	0
bin	-0.24	0
bin	-0.22	0
bin	-0.2	0
bin	-0.18	0
bin	-0.16	0
bin	-0.14	0
bin	-0.12	0
bin	-0.1	0
bin	-0.08	0
bin	-0.06	0
bin	-0.04	0
bin	-0.02	0
bin	0	92695
bin	0.02	17
bin	0.04	0
bin	0.06	0
bin	0.08	0
bin	0.1	0
bin	0.12	0
bin	0.14	0
bin	0.16	0
bin	0.18	0
bin	0.2	0
bin	0.22	0
bin	0.24	0
bin	0.26	0
bin	0.28	0
bin	0.3	0
bin	0.32	0
bin	0.34	0
bin	0.36	0
bin	0.38	0
bin	0.4	0
bin	0.42	0
bin	0.44	0
bin	0.46	0
bin	0.48	0
bin	0.5	0
statistic Network.tor[3] activity_time_of_a_rule_B
field count 587538
field mean 1.2995074328478e-005
field stddev 0.00011405975553452
field min 0
field max 0.007427830004
field sum 7.6350999808051
field sqrsum 0.007742856399635
bin	-inf	0
bin	-0.5	0
bin	-0.48	0
bin	-0.46	0
bin	-0.44	0
bin	-0.42	0
bin	-0.4	0
bin	-0.38	0
bin	-0.36	0
bin	-0.34	0
bin	-0.32	0
bin	-0.3	0
bin	-0.28	0
bin	-0.26	0
bin	-0.24	0
bin	-0.22	0
bin	-0.2	0
bin	-0.18	0
bin	-0.16	0
bin	-0.14	0
bin	-0.12	0
bin	-0.1	0
bin	-0.08	0
bin	-0.06	0
bin	-0.04	0
bin	-0.02	0
bin	0	587538
bin	0.02	0
bin	0.04	0
bin	0.06	0
bin	0.08	0
bin	0.1	0
bin	0.12	0
bin	0.14	0
bin	0.16	0
bin	0.18	0
bin	0.2	0
bin	0.22	0
bin	0.24	0
bin	0.26	0
bin	0.28	0
bin	0.3	0
bin	0.32	0
bin	0.34	0
bin	0.36	0
bin	0.38	0
bin	0.4	0
bin	0.42	0
bin	0.44	0
bin	0.46	0
bin	0.48	0
bin	0.5	0
statistic Network.tor[3] bandwidth_histogram
field count 1200
field mean 324.5901
field stddev 19.243245760875
field min 279.48
field max 405.24
field sum 389508.12
field sqrsum 126874472.328
bin	-inf	0
bin	279	2
bin	281	2
bin	283	6
bin	285	2
bin	287	9
bin	289	9
bin	291	12
bin	293	10
bin	295	18
bin	297	23
bin	299	28
bin	301	33
bin	303	36
bin	305	30
bin	307	45
bin	309	40
bin	311	33
bin	313	44
bin	315	38
bin	317	47
bin	319	39
bin	321	65
bin	323	46
bin	325	51
bin	327	44
bin	329	61
bin	331	54
bin	333	49
bin	335	53
bin	337	41
bin	339	38
bin	341	22
bin	343	27
bin	345	24
bin	347	20
bin	349	17
bin	351	15
bin	353	11
bin	355	9
bin	357	7
bin	359	3
bin	361	4
bin	363	4
bin	365	2
bin	367	1
bin	369	0
bin	371	1
bin	373	1
bin	375	2
bin	377	0
bin	379	2
bin	381	1
bin	383	3
bin	385	2
bin	387	1
bin	389	1
bin	391	2
bin	393	1
bin	395	4
bin	397	1
bin	399	0
bin	401	2
bin	403	1
bin	405	1
bin	407	0
scalar Network.tor[3] "cache_content_by_app: " 0.63445378151261
scalar Network.tor[4] "Bandwidth: " 0
statistic Network.tor[4] "flow count"
field count 1200
field mean 608.2625
field stddev 27.892685935395
field min 531
field max 675
field sum 729915
field sqrsum 444912747
bin	-inf	0
bin	530	1
bin	532	2
bin	534	0
bin	536	1
bin	538	0
bin	540	3
bin	542	3
bin	544	3
bin	546	4
bin	548	1
bin	550	6
bin	552	9
bin	554	9
bin	556	5
bin	558	10
bin	560	16
bin	562	8
bin	564	11
bin	566	13
bin	568	9
bin	570	9
bin	572	18
bin	574	12
bin	576	10
bin	578	16
bin	580	25
bin	582	20
bin	584	26
bin	586	23
bin	588	36
bin	590	24
bin	592	35
bin	594	31
bin	596	37
bin	598	35
bin	600	31
bin	602	39
bin	604	28
bin	606	41
bin	608	31
bin	610	37
bin	612	23
bin	614	15
bin	616	17
bin	618	16
bin	620	22
bin	622	12
bin	624	36
bin	626	23
bin	628	27
bin	630	29
bin	632	33
bin	634	27
bin	636	23
bin	638	35
bin	640	32
bin	642	24
bin	644	16
bin	646	24
bin	648	21
bin	650	12
bin	652	9
bin	654	18
bin	656	4
bin	658	10
bin	660	6
bin	662	1
bin	664	1
bin	666	2
bin	668	0
bin	670	2
bin	672	1
bin	674	1
bin	676	0
bin	678	0
bin	680	0
bin	682	0
bin	684	0
bin	686	0
bin	688	0
bin	690	0
bin	692	0
bin	694	0
bin	696	0
bin	698	0
bin	700	0
bin	702	0
statistic Network.tor[4] cache_occupancy
field count 1200
field mean 300
field stddev 0
field min 300
field max 300
field sum 360000
field sqrsum 108000000
bin	-inf	0
bin	299	0
bin	300	1200
bin	301	0
statistic Network.tor[4] activity_time_of_a_rule_A
field count 88498
field mean 0.0001718059890228
field stddev 0.0013119235198585
field min 0
field max 0.091431653091
field sum 15.20448641654
field sqrsum 0.15492824238968
bin	-inf	0
bin	-0.5	0
bin	-0.48	0
bin	-0.46	0
bin	-0.44	0
bin	-0.42	0
bin	-0.4	0
bin	-0.38	0
bin	-0.36	0
bin	-0.34	0
bin	-0.32	0
bin	-0.3	0
bin	-0.28	0
bin	-0.26	0
bin	-0.24	0
bin	-0.22	0
bin	-0.2	0
bin	-0.18	0
bin	-0.16	0
bin	-0.14	0
bin	-0.12	0
bin	-0.1	0
bin	-0.08	0
bin	-0.06	0
bin	-0.04	0
bin	-0.02	0
bin	0	88433
bin	0.02	60
bin	0.04	3
bin	0.06	1
bin	0.08	1
bin	0.1	0
bin	0.12	0
bin	0.14	0
bin	0.16	0
bin	0.18	0
bin	0.2	0
bin	0.22	0
bin	0.24	0
bin	0.26	0
bin	0.28	0
bin	0.3	0
bin	0.32	0
bin	0.34	0
bin	0.36	0
bin	0.38	0
bin	0.4	0
bin	0.42	0
bin	0.44	0
bin	0.46	0
bin	0.48	0
bin	0.5	0
statistic Network.tor[4] activity_time_of_a_rule_B
field count 583292
field mean 1.5541777140438e-005
field stddev 0.00015411894147718
field min 0
field max 0.009234100182
field sum 9.0653942718001
field sqrsum 0.013995598213218
bin	-inf	0
bin	-0.5	0
bin	-0.48	0
bin	-0.46	0
bin	-0.44	0
bin	-0.42	0
bin	-0.4	0
bin	-0.38	0
bin	-0.36	0
bin	-0.34	0
bin	-0.32	0
bin	-0.3	0
bin	-0.28	0
bin	-0.26	0
bin	-0.24	0
bin	-0.22	0
bin	-0.2	0
bin	-0.18	0
bin	-0.16	0
bin	-0.14	0
bin	-0.12	0
bin	-0.1	0
bin	-0.08	0
bin	-0.06	0
bin	-0.04	0
bin	-0.02	0
bin	0	583292
bin	0.02	0
bin	0.04	0
bin	0.06	0
bin	0.08	0
bin	0.1	0
bin	0.12	0
bin	0.14	0
bin	0.16	0
bin	0.18	0
bin	0.2	0
bin	0.22	0
bin	0.24	0
bin	0.26	0
bin	0.28	0
bin	0.3	0
bin	0.32	0
bin	0.34	0
bin	0.36	0
bin	0.38	0
bin	0.4	0
bin	0.42	0
bin	0.44	0
bin	0.46	0
bin	0.48	0
bin	0.5	0
statistic Network.tor[4] bandwidth_histogram
field count 1200
field mean 303.6551
field stddev 17.935991613309
field min 254.4
field max 391.44
field sum 364386.12
field sqrsum 111033421.7616
bin	-inf	0
bin	252	0
bin	254	1
bin	256	0
bin	258	1
bin	260	1
bin	262	1
bin	264	2
bin	266	8
bin	268	4
bin	270	7
bin	272	8
bin	274	16
bin	276	16
bin	278	23
bin	280	20
bin	282	29
bin	284	31
bin	286	35
bin	288	51
bin	290	46
bin	292	47
bin	294	56
bin	296	59
bin	298	69
bin	300	53
bin	302	65
bin	304	65
bin	306	63
bin	308	59
bin	310	45
bin	312	47
bin	314	34
bin	316	36
bin	318	31
bin	320	20
bin	322	16
bin	324	18
bin	326	14
bin	328	16
bin	330	15
bin	332	15
bin	334	6
bin	336	2
bin	338	6
bin	340	3
bin	342	3
bin	344	1
bin	346	4
bin	348	4
bin	350	1
bin	352	3
bin	354	4
bin	356	4
bin	358	2
bin	360	3
bin	362	2
bin	364	1
bin	366	1
bin	368	2
bin	370	2
bin	372	0
bin	374	0
bin	376	0
bin	378	1
bin	380	1
bin	382	0
bin	384	0
bin	386	0
bin	388	0
bin	390	1
bin	392	0
scalar Network.tor[4] "cache_content_by_app: " 0.58995815899582
scalar Network.tor[5] "Bandwidth: " 0
statistic Network.tor[5] "flow count"
field count 1200
field mean 628.6175
field stddev 16.308929396654
field min 580
field max 678
field sum 754341
field sqrsum 474510865
bin	-inf	0
bin	580	1
bin	582	2
bin	584	1
bin	586	2
bin	588	4
bin	590	6
bin	592	2
bin	594	5
bin	596	8
bin	598	9
bin	600	14
bin	602	17
bin	604	24
bin	606	29
bin	608	22
bin	610	35
bin	612	31
bin	614	43
bin	616	51
bin	618	44
bin	620	50
bin	622	55
bin	624	50
bin	626	62
bin	628	57
bin	630	65
bin	632	52
bin	634	55
bin	636	48
bin	638	55
bin	640	45
bin	642	31
bin	644	43
bin	646	33
bin	648	26
bin	650	27
bin	652	23
bin	654	14
bin	656	11
bin	658	6
bin	660	12
bin	662	8
bin	664	7
bin	666	6
bin	668	2
bin	670	4
bin	672	1
bin	674	0
bin	676	1
bin	678	1
bin	680	0
bin	682	0
bin	684	0
bin	686	0
statistic Network.tor[5] cache_occupancy
field count 1200
field mean 300
field stddev 0
field min 300
field max 300
field sum 360000
field sqrsum 108000000
bin	-inf	0
bin	299	0
bin	300	1200
bin	301	0
statistic Network.tor[5] activity_time_of_a_rule_A
field count 90813
field mean 0.00018210322835535
field stddev 0.0010780375697145
field min 0
field max 0.034578540784
field sum 16.537340476634
field sqrsum 0.10855003122503
bin	-inf	0
bin	-0.5	0
bin	-0.48	0
bin	-0.46	0
bin	-0.44	0
bin	-0.42	0
bin	-0.4	0
bin	-0.38	0
bin	-0.36	0
bin	-0.34	0
bin	-0.32	0
bin	-0.3	0
bin	-0.28	0
bin	-0.26	0
bin	-0.24	0
bin	-0.22	0
bin	-0.2	0
bin	-0.18	0
bin	-0.16	0
bin	-0.14	0
bin	-0.12	0
bin	-0.1	0
bin	-0.08	0
bin	-0.06	0
bin	-0.04	0
bin	-0.02	0
bin	0	90783
bin	0.02	30
bin	0.04	0
bin	0.06	0
bin	0.08	0
bin	0.1	0
bin	0.12	0
bin	0.14	0
bin	0.16	0
bin	0.18	0
bin	0.2	0
bin	0.22	0
bin	0.24	0
bin	0.26	0
bin	0.28	0
bin	0.3	0
bin	0.32	0
bin	0.34	0
bin	0.36	0
bin	0.38	0
bin	0.4	0
bin	0.42	0
bin	0.44	0
bin	0.46	0
bin	0.48	0
bin	0.5	0
statistic Network.tor[5] activity_time_of_a_rule_B
field count 584974
field mean 1.3706846561733e-005
field stddev 0.0001319855338963
field min 0
field max 0.012420722927
field sum 8.018148860603
field sqrsum 0.010300239168616
bin	-inf	0
bin	-0.5	0
bin	-0.48	0
bin	-0.46	0
bin	-0.44	0
bin	-0.42	0
bin	-0.4	0
bin	-0.38	0
bin	-0.36	0
bin	-0.34	0
bin	-0.32	0
bin	-0.3	0
bin	-0.28	0
bin	-0.26	0
bin	-0.24	0
bin	-0.22	0
bin	-0.2	0
bin	-0.18	0
bin	-0.16	0
bin	-0.14	0
bin	-0.12	0
bin	-0.1	0
bin	-0.08	0
bin	-0.06	0
bin	-0.04	0
bin	-0.02	0
bin	0	584974
bin	0.02	0
bin	0.04	0
bin	0.06	0
bin	0.08	0
bin	0.1	0
bin	0.12	0
bin	0.14	0
bin	0.16	0
bin	0.18	0
bin	0.2	0
bin	0.22	0
bin	0.24	0
bin	0.26	0
bin	0.28	0
bin	0.3	0
bin	0.32	0
bin	0.34	0
bin	0.36	0
bin	0.38	0
bin	0.4	0
bin	0.42	0
bin	0.44	0
bin	0.46	0
bin	0.48	0
bin	0.5	0
statistic Network.tor[5] bandwidth_histogram
field count 1200
field mean 308.7252
field stddev 21.853613995483
field min 267.48
field max 381.96
field sum 370470.24
field sqrsum 114946117.8912
bin	-inf	0
bin	266	1
bin	268	3
bin	270	5
bin	272	4
bin	274	9
bin	276	10
bin	278	20
bin	280	21
bin	282	38
bin	284	40
bin	286	46
bin	288	44
bin	290	52
bin	292	52
bin	294	55
bin	296	46
bin	298	48
bin	300	42
bin	302	43
bin	304	49
bin	306	47
bin	308	46
bin	310	43
bin	312	45
bin	314	26
bin	316	27
bin	318	29
bin	320	22
bin	322	23
bin	324	16
bin	326	27
bin	328	14
bin	330	18
bin	332	15
bin	334	10
bin	336	19
bin	338	15
bin	340	9
bin	342	8
bin	344	7
bin	346	14
bin	348	18
bin	350	16
bin	352	8
bin	354	12
bin	356	9
bin	358	4
bin	360	5
bin	362	4
bin	364	2
bin	366	1
bin	368	4
bin	370	1
bin	372	1
bin	374	2
bin	376	0
bin	378	2
bin	380	3
bin	382	0
scalar Network.tor[5] "cache_content_by_app: " 0.59414225941423
scalar Network.tor[6] "Bandwidth: " 0
statistic Network.tor[6] "flow count"
field count 1200
field mean 634.93916666667
field stddev 16.634483891929
field min 585
field max 686
field sum 761927
field sqrsum 484109065
bin	-inf	0
bin	572	0
bin	574	0
bin	576	0
bin	578	0
bin	580	0
bin	582	0
bin	584	2
bin	586	0
bin	588	3
bin	590	3
bin	592	2
bin	594	4
bin	596	12
bin	598	6
bin	600	8
bin	602	8
bin	604	20
bin	606	7
bin	608	13
bin	610	14
bin	612	24
bin	614	21
bin	616	38
bin	618	25
bin	620	26
bin	622	42
bin	624	36
bin	626	47
bin	628	44
bin	630	47
bin	632	76
bin	634	69
bin	636	64
bin	638	57
bin	640	68
bin	642	53
bin	644	48
bin	646	54
bin	648	43
bin	650	41
bin	652	35
bin	654	25
bin	656	19
bin	658	23
bin	660	17
bin	662	10
bin	664	12
bin	666	8
bin	668	6
bin	670	3
bin	672	5
bin	674	4
bin	676	1
bin	678	1
bin	680	3
bin	682	0
bin	684	2
bin	686	1
bin	688	0
statistic Network.tor[6] cache_occupancy
field count 1200
field mean 300
field stddev 0
field min 300
field max 300
field sum 360000
field sqrsum 108000000
bin	-inf	0
bin	299	0
bin	300	1200
bin	301	0
statistic Network.tor[6] activity_time_of_a_rule_A
field count 91805
field mean 0.00018328277814666
field stddev 0.0010426473268459
field min 0
field max 0.058919203985
field sum 16.826275447754
field sqrsum 0.10288532950654
bin	-inf	0
bin	-0.5	0
bin	-0.48	0
bin	-0.46	0
bin	-0.44	0
bin	-0.42	0
bin	-0.4	0
bin	-0.38	0
bin	-0.36	0
bin	-0.34	0
bin	-0.32	0
bin	-0.3	0
bin	-0.28	0
bin	-0.26	0
bin	-0.24	0
bin	-0.22	0
bin	-0.2	0
bin	-0.18	0
bin	-0.16	0
bin	-0.14	0
bin	-0.12	0
bin	-0.1	0
bin	-0.08	0
bin	-0.06	0
bin	-0.04	0
bin	-0.02	0
bin	0	91785
bin	0.02	19
bin	0.04	1
bin	0.06	0
bin	0.08	0
bin	0.1	0
bin	0.12	0
bin	0.14	0
bin	0.16	0
bin	0.18	0
bin	0.2	0
bin	0.22	0
bin	0.24	0
bin	0.26	0
bin	0.28	0
bin	0.3	0
bin	0.32	0
bin	0.34	0
bin	0.36	0
bin	0.38	0
bin	0.4	0
bin	0.42	0
bin	0.44	0
bin	0.46	0
bin	0.48	0
bin	0.5	0
statistic Network.tor[6] activity_time_of_a_rule_B
field count 587289
field mean 1.3755478369188e-005
field stddev 0.00012183116688752
field min 0
field max 0.011322755986
field sum 8.078441135962
field sqrsum 0.008828140661449
bin	-inf	0
bin	-0.5	0
bin	-0.48	0
bin	-0.46	0
bin	-0.44	0
bin	-0.42	0
bin	-0.4	0
bin	-0.38	0
bin	-0.36	0
bin	-0.34	0
bin	-0.32	0
bin	-0.3	0
bin	-0.28	0
bin	-0.26	0
bin	-0.24	0
bin	-0.22	0
bin	-0.2	0
bin	-0.18	0
bin	-0.16	0
bin	-0.14	0
bin	-0.12	0
bin	-0.1	0
bin	-0.08	0
bin	-0.06	0
bin	-0.04	0
bin	-0.02	0
bin	0	587289
bin	0.02	0
bin	0.04	0
bin	0.06	0
bin	0.08	0
bin	0.1	0
bin	0.12	0
bin	0.14	0
bin	0.16	0
bin	0.18	0
bin	0.2	0
bin	0.22	0
bin	0.24	0
bin	0.26	0
bin	0.28	0
bin	0.3	0
bin	0.32	0
bin	0.34	0
bin	0.36	0
bin	0.38	0
bin	0.4	0
bin	0.42	0
bin	0.44	0
bin	0.46	0
bin	0.48	0
bin	0.5	0
statistic Network.tor[6] bandwidth_histogram
field count 1200
field mean 313.1195
field stddev 26.797747451486
field min 252
field max 414.6
field sum 375743.4
field sqrsum 118513610.5392
bin	-inf	0
bin	238	0
bin	240	0
bin	242	0
bin	244	0
bin	246	0
bin	248	0
bin	250	0
bin	252	1
bin	254	1
bin	256	1
bin	258	2
bin	260	0
bin	262	0
bin	264	16
bin	266	6
bin	268	11
bin	270	11
bin	272	20
bin	274	13
bin	276	19
bin	278	26
bin	280	23
bin	282	28
bin	284	26
bin	286	21
bin	288	27
bin	290	30
bin	292	18
bin	294	30
bin	296	37
bin	298	21
bin	300	33
bin	302	37
bin	304	24
bin	306	43
bin	308	39
bin	310	28
bin	312	37
bin	314	52
bin	316	31
bin	318	42
bin	320	43
bin	322	38
bin	324	30
bin	326	40
bin	328	27
bin	330	15
bin	332	20
bin	334	20
bin	336	16
bin	338	14
bin	340	11
bin	342	20
bin	344	18
bin	346	22
bin	348	14
bin	350	10
bin	352	9
bin	354	9
bin	356	7
bin	358	8
bin	360	3
bin	362	6
bin	364	5
bin	366	3
bin	368	2
bin	370	4
bin	372	1
bin	374	1
bin	376	0
bin	378	1
bin	380	3
bin	382	3
bin	384	3
bin	386	0
bin	388	2
bin	390	2
bin	392	3
bin	394	3
bin	396	3
bin	398	1
bin	400	4
bin	402	1
bin	404	0
bin	406	0
bin	408	0
bin	410	0
bin	412	0
bin	414	1
bin	416	0
scalar Network.tor[6] "cache_content_by_app: " 0.68200836820084
scalar Network.tor[7] "Bandwidth: " 0
statistic Network.tor[7] "flow count"
field count 1200
field mean 630.3475
field stddev 14.42151380636
field min 578
field max 671
field sum 756417
field sqrsum 477054933
bin	-inf	0
bin	558	0
bin	560	0
bin	562	0
bin	564	0
bin	566	0
bin	568	0
bin	570	0
bin	572	0
bin	574	0
bin	576	0
bin	578	1
bin	580	0
bin	582	0
bin	584	1
bin	586	0
bin	588	0
bin	590	1
bin	592	1
bin	594	4
bin	596	8
bin	598	8
bin	600	4
bin	602	6
bin	604	14
bin	606	13
bin	608	15
bin	610	36
bin	612	40
bin	614	44
bin	616	44
bin	618	44
bin	620	42
bin	622	64
bin	624	54
bin	626	69
bin	628	60
bin	630	63
bin	632	61
bin	634	59
bin	636	59
bin	638	55
bin	640	54
bin	642	52
bin	644	40
bin	646	30
bin	648	31
bin	650	33
bin	652	18
bin	654	28
bin	656	18
bin	658	8
bin	660	9
bin	662	3
bin	664	1
bin	666	4
bin	668	0
bin	670	1
bin	672	0
statistic Network.tor[7] cache_occupancy
field count 1200
field mean 300
field stddev 0
field min 300
field max 300
field sum 360000
field sqrsum 108000000
bin	-inf	0
bin	299	0
bin	300	1200
bin	301	0
statistic Network.tor[7] activity_time_of_a_rule_A
field count 90675
field mean 0.00018026425733735
field stddev 0.0010674956340675
field min 0
field max 0.051006287782
field sum 16.345461534064
field sqrsum 0.10627378070204
bin	-inf	0
bin	-0.5	0
bin	-0.48	0
bin	-0.46	0
bin	-0.44	0
bin	-0.42	0
bin	-0.4	0
bin	-0.38	0
bin	-0.36	0
bin	-0.34	0
bin	-0.32	0
bin	-0.3	0
bin	-0.28	0
bin	-0.26	0
bin	-0.24	0
bin	-0.22	0
bin	-0.2	0
bin	-0.18	0
bin	-0.16	0
bin	-0.14	0
bin	-0.12	0
bin	-0.1	0
bin	-0.08	0
bin	-0.06	0
bin	-0.04	0
bin	-0.02	0
bin	0	90653
bin	0.02	21
bin	0.04	1
bin	0.06	0
bin	0.08	0
bin	0.1	0
bin	0.12	0
bin	0.14	0
bin	0.16	0
bin	0.18	0
bin	0.2	0
bin	0.22	0
bin	0.24	0
bin	0.26	0
bin	0.28	0
bin	0.3	0
bin	0.32	0
bin	0.34	0
bin	0.36	0
bin	0.38	0
bin	0.4	0
bin	0.42	0
bin	0.44	0
bin	0.46	0
bin	0.48	0
bin	0.5	0
statistic Network.tor[7] activity_time_of_a_rule_B
field count 585466
field mean 1.4282929814968e-005
field stddev 0.00012840505178544
field min 0
field max 0.009863481123
field sum 8.36216978705
field sqrsum 0.0097724996723779
bin	-inf	0
bin	-0.5	0
bin	-0.48	0
bin	-0.46	0
bin	-0.44	0
bin	-0.42	0
bin	-0.4	0
bin	-0.38	0
bin	-0.36	0
bin	-0.34	0
bin	-0.32	0
bin	-0.3	0
bin	-0.28	0
bin	-0.26	0
bin	-0.24	0
bin	-0.22	0
bin	-0.2	0
bin	-0.18	0
bin	-0.16	0
bin	-0.14	0
bin	-0.12	0
bin	-0.1	0
bin	-0.08	0
bin	-0.06	0
bin	-0.04	0
bin	-0.02	0
bin	0	585466
bin	0.02	0
bin	0.04	0
bin	0.06	0
bin	0.08	0
bin	0.1	0
bin	0.12	0
bin	0.14	0
bin	0.16	0
bin	0.18	0
bin	0.2	0
bin	0.22	0
bin	0.24	0
bin	0.26	0
bin	0.28	0
bin	0.3	0
bin	0.32	0
bin	0.34	0
bin	0.36	0
bin	0.38	0
bin	0.4	0
bin	0.42	0
bin	0.44	0
bin	0.46	0
bin	0.48	0
bin	0.5	0
statistic Network.tor[7] bandwidth_histogram
field count 1200
field mean 306.2089
field stddev 12.585219687608
field min 267
field max 364.2
field sum 367450.68
field sqrsum 112706575.4448
bin	-inf	0
bin	254	0
bin	256	0
bin	258	0
bin	260	0
bin	262	0
bin	264	0
bin	266	1
bin	268	0
bin	270	2
bin	272	2
bin	274	4
bin	276	2
bin	278	10
bin	280	3
bin	282	20
bin	284	18
bin	286	28
bin	288	25
bin	290	40
bin	292	35
bin	294	56
bin	296	72
bin	298	61
bin	300	73
bin	302	64
bin	304	79
bin	306	87
bin	308	74
bin	310	60
bin	312	60
bin	314	70
bin	316	39
bin	318	50
bin	320	42
bin	322	30
bin	324	27
bin	326	13
bin	328	16
bin	330	13
bin	332	10
bin	334	2
bin	336	4
bin	338	1
bin	340	2
bin	342	1
bin	344	0
bin	346	0
bin	348	2
bin	350	1
bin	352	0
bin	354	0
bin	356	0
bin	358	0
bin	360	0
bin	362	0
bin	364	1
bin	366	0
scalar Network.tor[7] "cache_content_by_app: " 0.60759493670886
scalar Network.tor[8] "Bandwidth: " 0
statistic Network.tor[8] "flow count"
field count 1200
field mean 631.22833333333
field stddev 18.528688318332
field min 583
field max 678
field sum 757474
field sqrsum 478550682
bin	-inf	0
bin	582	1
bin	584	2
bin	586	2
bin	588	2
bin	590	3
bin	592	4
bin	594	6
bin	596	15
bin	598	7
bin	600	14
bin	602	22
bin	604	17
bin	606	20
bin	608	37
bin	610	24
bin	612	31
bin	614	37
bin	616	47
bin	618	45
bin	620	42
bin	622	52
bin	624	63
bin	626	34
bin	628	46
bin	630	62
bin	632	60
bin	634	38
bin	636	42
bin	638	36
bin	640	35
bin	642	37
bin	644	35
bin	646	32
bin	648	33
bin	650	31
bin	652	19
bin	654	25
bin	656	27
bin	658	23
bin	660	15
bin	662	22
bin	664	15
bin	666	6
bin	668	16
bin	670	5
bin	672	3
bin	674	4
bin	676	4
bin	678	2
bin	680	0
bin	682	0
bin	684	0
bin	686	0
bin	688	0
bin	690	0
bin	692	0
bin	694	0
bin	696	0
statistic Network.tor[8] cache_occupancy
field count 1200
field mean 300
field stddev 0
field min 300
field max 300
field sum 360000
field sqrsum 108000000
bin	-inf	0
bin	299	0
bin	300	1200
bin	301	0
statistic Network.tor[8] activity_time_of_a_rule_A
field count 89460
field mean 0.0001711398494495
field stddev 0.0011312678238665
field min 0
field max 0.0381214409
field sum 15.310170931752
field sqrsum 0.11710684649959
bin	-inf	0
bin	-0.5	0
bin	-0.48	0
bin	-0.46	0
bin	-0.44	0
bin	-0.42	0
bin	-0.4	0
bin	-0.38	0
bin	-0.36	0
bin	-0.34	0
bin	-0.32	0
bin	-0.3	0
bin	-0.28	0
bin	-0.26	0
bin	-0.24	0
bin	-0.22	0
bin	-0.2	0
bin	-0.18	0
bin	-0.16	0
bin	-0.14	0
bin	-0.12	0
bin	-0.1	0
bin	-0.08	0
bin	-0.06	0
bin	-0.04	0
bin	-0.02	0
bin	0	89425
bin	0.02	35
bin	0.04	0
bin	0.06	0
bin	0.08	0
bin	0.1	0
bin	0.12	0
bin	0.14	0
bin	0.16	0
bin	0.18	0
bin	0.2	0
bin	0.22	0
bin	0.24	0
bin	0.26	0
bin	0.28	0
bin	0.3	0
bin	0.32	0
bin	0.34	0
bin	0.36	0
bin	0.38	0
bin	0.4	0
bin	0.42	0
bin	0.44	0
bin	0.46	0
bin	0.48	0
bin	0.5	0
statistic Network.tor[8] activity_time_of_a_rule_B
field count 585127
field mean 1.5922288749618e-005
field stddev 0.0001469277593235
field min 0
field max 0.008778750038
field sum 9.3165610491979
field sqrsum 0.012779904412749
bin	-inf	0
bin	-0.5	0
bin	-0.48	0
bin	-0.46	0
bin	-0.44	0
bin	-0.42	0
bin	-0.4	0
bin	-0.38	0
bin	-0.36	0
bin	-0.34	0
bin	-0.32	0
bin	-0.3	0
bin	-0.28	0
bin	-0.26	0
bin	-0.24	0
bin	-0.22	0
bin	-0.2	0
bin	-0.18	0
bin	-0.16	0
bin	-0.14	0
bin	-0.12	0
bin	-0.1	0
bin	-0.08	0
bin	-0.06	0
bin	-0.04	0
bin	-0.02	0
bin	0	585127
bin	0.02	0
bin	0.04	0
bin	0.06	0
bin	0.08	0
bin	0.1	0
bin	0.12	0
bin	0.14	0
bin	0.16	0
bin	0.18	0
bin	0.2	0
bin	0.22	0
bin	0.24	0
bin	0.26	0
bin	0.28	0
bin	0.3	0
bin	0.32	0
bin	0.34	0
bin	0.36	0
bin	0.38	0
bin	0.4	0
bin	0.42	0
bin	0.44	0
bin	0.46	0
bin	0.48	0
bin	0.5	0
statistic Network.tor[8] bandwidth_histogram
field count 1200
field mean 315.3708
field stddev 23.275453571859
field min 270.12
field max 404.64
field sum 378444.96
field sqrsum 120000044.1312
bin	-inf	0
bin	263	0
bin	265	0
bin	267	0
bin	269	2
bin	271	4
bin	273	2
bin	275	2
bin	277	6
bin	279	10
bin	281	16
bin	283	14
bin	285	28
bin	287	38
bin	289	35
bin	291	47
bin	293	48
bin	295	32
bin	297	46
bin	299	42
bin	301	39
bin	303	48
bin	305	47
bin	307	43
bin	309	36
bin	311	39
bin	313	32
bin	315	41
bin	317	35
bin	319	37
bin	321	32
bin	323	48
bin	325	38
bin	327	25
bin	329	25
bin	331	32
bin	333	26
bin	335	9
bin	337	18
bin	339	16
bin	341	10
bin	343	7
bin	345	13
bin	347	16
bin	349	5
bin	351	7
bin	353	9
bin	355	13
bin	357	9
bin	359	6
bin	361	10
bin	363	13
bin	365	8
bin	367	2
bin	369	5
bin	371	4
bin	373	1
bin	375	4
bin	377	6
bin	379	6
bin	381	1
bin	383	2
bin	385	2
bin	387	0
bin	389	1
bin	391	0
bin	393	0
bin	395	0
bin	397	0
bin	399	0
bin	401	0
bin	403	2
bin	405	0
scalar Network.tor[8] "cache_content_by_app: " 0.62809917355372
scalar Network.tor[9] "Bandwidth: " 0
statistic Network.tor[9] "flow count"
field count 1200
field mean 641.89833333333
field stddev 23.718807208663
field min 587
field max 706
field sum 770278
field sqrsum 495114700
bin	-inf	0
bin	582	0
bin	584	0
bin	586	2
bin	588	2
bin	590	1
bin	592	4
bin	594	4
bin	596	6
bin	598	3
bin	600	8
bin	602	8
bin	604	4
bin	606	13
bin	608	17
bin	610	22
bin	612	20
bin	614	30
bin	616	27
bin	618	25
bin	620	42
bin	622	31
bin	624	42
bin	626	48
bin	628	49
bin	630	45
bin	632	57
bin	634	57
bin	636	38
bin	638	35
bin	640	37
bin	642	36
bin	644	29
bin	646	27
bin	648	20
bin	650	10
bin	652	28
bin	654	27
bin	656	23
bin	658	20
bin	660	23
bin	662	17
bin	664	28
bin	666	30
bin	668	15
bin	670	21
bin	672	20
bin	674	25
bin	676	19
bin	678	13
bin	680	9
bin	682	13
bin	684	16
bin	686	7
bin	688	10
bin	690	13
bin	692	4
bin	694	6
bin	696	4
bin	698	3
bin	700	4
bin	702	2
bin	704	0
bin	706	1
bin	708	0
statistic Network.tor[9] cache_occupancy
field count 1200
field mean 300
field stddev 0
field min 300
field max 300
field sum 360000
field sqrsum 108000000
bin	-inf	0
bin	299	0
bin	300	1200
bin	301	0
statistic Network.tor[9] activity_time_of_a_rule_A
field count 92220
field mean 0.00018354985581168
field stddev 0.00098594697369998
field min 0
field max 0.044591427268
field sum 16.926967702953
field sqrsum 0.092752242520688
bin	-inf	0
bin	-0.5	0
bin	-0.48	0
bin	-0.46	0
bin	-0.44	0
bin	-0.42	0
bin	-0.4	0
bin	-0.38	0
bin	-0.36	0
bin	-0.34	0
bin	-0.32	0
bin	-0.3	0
bin	-0.28	0
bin	-0.26	0
bin	-0.24	0
bin	-0.22	0
bin	-0.2	0
bin	-0.18	0
bin	-0.16	0
bin	-0.14	0
bin	-0.12	0
bin	-0.1	0
bin	-0.08	0
bin	-0.06	0
bin	-0.04	0
bin	-0.02	0
bin	0	92204
bin	0.02	15
bin	0.04	1
bin	0.06	0
bin	0.08	0
bin	0.1	0
bin	0.12	0
bin	0.14	0
bin	0.16	0
bin	0.18	0
bin	0.2	0
bin	0.22	0
bin	0.24	0
bin	0.26	0
bin	0.28	0
bin	0.3	0
bin	0.32	0
bin	0.34	0
bin	0.36	0
bin	0.38	0
bin	0.4	0
bin	0.42	0
bin	0.44	0
bin	0.46	0
bin	0.48	0
bin	0.5	0
statistic Network.tor[9] activity_time_of_a_rule_B
field count 587559
field mean 1.353595844779e-005
field stddev 0.00011968688225628
field min 0
field max 0.010316775449
field sum 7.953174209625
field sqrsum 0.008524392680951
bin	-inf	0
bin	-0.5	0
bin	-0.48	0
bin	-0.46	0
bin	-0.44	0
bin	-0.42	0
bin	-0.4	0
bin	-0.38	0
bin	-0.36	0
bin	-0.34	0
bin	-0.32	0
bin	-0.3	0
bin	-0.28	0
bin	-0.26	0
bin	-0.24	0
bin	-0.22	0
bin	-0.2	0
bin	-0.18	0
bin	-0.16	0
bin	-0.14	0
bin	-0.12	0
bin	-0.1	0
bin	-0.08	0
bin	-0.06	0
bin	-0.04	0
bin	-0.02	0
bin	0	587559
bin	0.02	0
bin	0.04	0
bin	0.06	0
bin	0.08	0
bin	0.1	0
bin	0.12	0
bin	0.14	0
bin	0.16	0
bin	0.18	0
bin	0.2	0
bin	0.22	0
bin	0.24	0
bin	0.26	0
bin	0.28	0
bin	0.3	0
bin	0.32	0
bin	0.34	0
bin	0.36	0
bin	0.38	0
bin	0.4	0
bin	0.42	0
bin	0.44	0
bin	0.46	0
bin	0.48	0
bin	0.5	0
statistic Network.tor[9] bandwidth_histogram
field count 1200
field mean 322.089
field stddev 20.297105345458
field min 277.32
field max 396
field sum 386506.8
field sqrsum 124983543.7152
bin	-inf	0
bin	277	1
bin	279	1
bin	281	7
bin	283	3
bin	285	11
bin	287	18
bin	289	12
bin	291	20
bin	293	28
bin	295	17
bin	297	32
bin	299	31
bin	301	38
bin	303	36
bin	305	56
bin	307	47
bin	309	46
bin	311	41
bin	313	44
bin	315	38
bin	317	50
bin	319	38
bin	321	45
bin	323	34
bin	325	25
bin	327	32
bin	329	45
bin	331	42
bin	333	34
bin	335	51
bin	337	25
bin	339	29
bin	341	27
bin	343	31
bin	345	31
bin	347	12
bin	349	17
bin	351	19
bin	353	11
bin	355	16
bin	357	12
bin	359	6
bin	361	8
bin	363	6
bin	365	4
bin	367	2
bin	369	2
bin	371	8
bin	373	1
bin	375	2
bin	377	1
bin	379	0
bin	381	1
bin	383	3
bin	385	1
bin	387	1
bin	389	0
bin	391	0
bin	393	0
bin	395	1
bin	397	0
scalar Network.tor[9] "cache_content_by_app: " 0.62655601659751
scalar Network.agg[0] "Bandwidth: " 0
statistic Network.agg[0] "flow count"
field count 1200
field mean 3501.8291666667
field stddev 20.299302961488
field min 3440
field max 3573
field sum 4202195
field sqrsum 14715863077
bin	-inf	0
bin	3428	0
bin	3430	0
bin	3432	0
bin	3434	0
bin	3436	0
bin	3438	0
bin	3440	2
bin	3442	0
bin	3444	0
bin	3446	0
bin	3448	1
bin	3450	1
bin	3452	0
bin	3454	0
bin	3456	8
bin	3458	6
bin	3460	7
bin	3462	3
bin	3464	7
bin	3466	11
bin	3468	18
bin	3470	12
bin	3472	17
bin	3474	21
bin	3476	22
bin	3478	29
bin	3480	31
bin	3482	28
bin	3484	33
bin	3486	43
bin	3488	32
bin	3490	47
bin	3492	49
bin	3494	45
bin	3496	46
bin	3498	45
bin	3500	39
bin	3502	48
bin	3504	44
bin	3506	51
bin	3508	41
bin	3510	28
bin	3512	37
bin	3514	36
bin	3516	39
bin	3518	42
bin	3520	31
bin	3522	21
bin	3524	33
bin	3526	23
bin	3528	23
bin	3530	12
bin	3532	17
bin	3534	12
bin	3536	12
bin	3538	7
bin	3540	6
bin	3542	9
bin	3544	4
bin	3546	4
bin	3548	1
bin	3550	3
bin	3552	4
bin	3554	2
bin	3556	1
bin	3558	3
bin	3560	0
bin	3562	0
bin	3564	0
bin	3566	0
bin	3568	0
bin	3570	1
bin	3572	2
bin	3574	0
statistic Network.agg[0] cache_occupancy
field count 1200
field mean 1500
field stddev 0
field min 1500
field max 1500
field sum 1800000
field sqrsum 2700000000
bin	-inf	0
bin	1499	0
bin	1500	1200
bin	1501	0
statistic Network.agg[0] activity_time_of_a_rule_A
field count 82919
field mean 0.00015851398947305
field stddev 0.00030342918584641
field min 0
field max 0.013497065139
field sum 13.143821493116
field sqrsum 0.0097176793799314
bin	-inf	0
bin	0	68178
bin	0.000256	10306
bin	0.000512	2688
bin	0.000768	800
bin	0.001024	352
bin	0.00128	178
bin	0.001536	82
bin	0.001792	60
bin	0.002048	51
bin	0.002304	35
bin	0.00256	31
bin	0.002816	27
bin	0.003072	12
bin	0.003328	15
bin	0.003584	7
bin	0.00384	11
bin	0.004096	8
bin	0.004352	14
bin	0.004608	8
bin	0.004864	7
bin	0.00512	6
bin	0.005376	7
bin	0.005632	7
bin	0.005888	1
bin	0.006144	2
bin	0.0064	8
bin	0.006656	6
bin	0.006912	2
bin	0.007168	0
bin	0.007424	0
bin	0.00768	2
bin	0.007936	1
bin	0.008192	0
bin	0.008448	0
bin	0.008704	1
bin	0.00896	1
bin	0.009216	1
bin	0.009472	0
bin	0.009728	0
bin	0.009984	0
bin	0.01024	0
bin	0.010496	0
bin	0.010752	0
bin	0.011008	0
bin	0.011264	0
bin	0.01152	0
bin	0.011776	0
bin	0.012032	2
bin	0.012288	0
bin	0.012544	1
bin	0.0128	0
bin	0.013056	0
bin	0.013312	1
bin	0.013568	0
statistic Network.agg[0] activity_time_of_a_rule_B
field count 557229
field mean 0.00020022278360907
field stddev 0.00029159602877801
field min 0
field max 0.008524363678
field sum 111.5699414877
field sqrsum 0.069718962598904
bin	-inf	0
bin	0	306410
bin	0.000128	113001
bin	0.000256	56087
bin	0.000384	30200
bin	0.000512	17299
bin	0.00064	10684
bin	0.000768	6770
bin	0.000896	4583
bin	0.001024	3025
bin	0.001152	2151
bin	0.00128	1588
bin	0.001408	1157
bin	0.001536	871
bin	0.001664	710
bin	0.001792	483
bin	0.00192	454
bin	0.002048	335
bin	0.002176	261
bin	0.002304	200
bin	0.002432	174
bin	0.00256	138
bin	0.002688	132
bin	0.002816	90
bin	0.002944	69
bin	0.003072	52
bin	0.0032	40
bin	0.003328	61
bin	0.003456	27
bin	0.003584	33
bin	0.003712	26
bin	0.00384	24
bin	0.003968	17
bin	0.004096	9
bin	0.004224	12
bin	0.004352	10
bin	0.00448	8
bin	0.004608	8
bin	0.004736	5
bin	0.004864	3
bin	0.004992	5
bin	0.00512	3
bin	0.005248	2
bin	0.005376	2
bin	0.005504	0
bin	0.005632	1
bin	0.00576	1
bin	0.005888	1
bin	0.006016	1
bin	0.006144	1
bin	0.006272	1
bin	0.0064	2
bin	0.006528	1
bin	0.006656	0
bin	0.006784	0
bin	0.006912	0
bin	0.00704	0
bin	0.007168	0
bin	0.007296	0
bin	0.007424	0
bin	0.007552	0
bin	0.00768	0
bin	0.007808	0
bin	0.007936	0
bin	0.008064	0
bin	0.008192	0
bin	0.00832	0
bin	0.008448	1
bin	0.008576	0
statistic Network.agg[0] bandwidth_histogram
field count 0
field mean nan
field stddev nan
field min nan
field max nan
field sum 0
field sqrsum 0
bin	-inf	0
bin	0	0
bin	1	0
scalar Network.agg[0] "cache_content_by_app: " 0.10972568578554
statistic Network.dest "miss count"
field count 31446180
field mean 0.57595498085936
field stddev 0.64078429447368
field min 0
field max 2
field sum 18111584
field sqrsum 23343400
bin	-inf	0
bin	0	15950504
bin	1	12879768
bin	2	2615908
bin	3	0
statistic Network.dest "out of order"
field count 31446180
field mean 1.1001325757214
field stddev 10.25157069931
field min -16
field max 5177
field sum 34594967
field sqrsum 3342885855
bin	-inf	0
bin	-100	8717
bin	0	31430967
bin	100	1393
bin	200	1467
bin	300	1378
bin	400	1117
bin	500	77
bin	600	78
bin	700	67
bin	800	80
bin	900	81
bin	1000	71
bin	1100	66
bin	1200	73
bin	1300	52
bin	1400	49
bin	1500	58
bin	1600	47
bin	1700	45
bin	1800	38
bin	1900	38
bin	2000	26
bin	2100	30
bin	2200	40
bin	2300	28
bin	2400	22
bin	2500	16
bin	2600	19
bin	2700	9
bin	2800	9
bin	2900	9
bin	3000	0
bin	3100	2
bin	3200	0
bin	3300	1
bin	3400	0
bin	3500	0
bin	3600	0
bin	3700	1
bin	3800	1
bin	3900	1
bin	4000	0
bin	4100	0
bin	4200	2
bin	4300	1
bin	4400	1
bin	4500	1
bin	4600	1
bin	4700	0
bin	4800	0
bin	4900	0
bin	5000	0
bin	5100	1
bin	5200	0
bin	5300	0
bin	5400	0
bin	5500	0
bin	5600	0
bin	5700	0
bin	5800	0
statistic Network.dest "bandwidth to destination"
field count 1200
field mean 3144618000000
field stddev 68611973462.399
field min 2915280000000
field max 3344760000000
field sum 3.7735416e+015
field sqrsum 1.1871991254989e+028
bin	-inf	0
bin	2845000000000	0
bin	2855000000000	0
bin	2865000000000	0
bin	2875000000000	0
bin	2885000000000	0
bin	2895000000000	0
bin	2905000000000	0
bin	2915000000000	1
bin	2925000000000	0
bin	2935000000000	0
bin	2945000000000	0
bin	2955000000000	0
bin	2965000000000	0
bin	2975000000000	3
bin	2985000000000	0
bin	2995000000000	4
bin	3005000000000	8
bin	3015000000000	13
bin	3025000000000	19
bin	3035000000000	23
bin	3045000000000	27
bin	3055000000000	38
bin	3065000000000	61
bin	3075000000000	49
bin	3085000000000	67
bin	3095000000000	66
bin	3105000000000	72
bin	3115000000000	65
bin	3125000000000	80
bin	3135000000000	61
bin	3145000000000	50
bin	3155000000000	48
bin	3165000000000	49
bin	3175000000000	48
bin	3185000000000	46
bin	3195000000000	38
bin	3205000000000	47
bin	3215000000000	36
bin	3225000000000	39
bin	3235000000000	33
bin	3245000000000	31
bin	3255000000000	23
bin	3265000000000	14
bin	3275000000000	19
bin	3285000000000	9
bin	3295000000000	4
bin	3305000000000	5
bin	3315000000000	3
bin	3325000000000	0
bin	3335000000000	1
bin	3345000000000	0
statistic Network.dest miss_count_by_apps
field count 31446180
field mean 0.82993142569304
field stddev 0.82476909688097
field min 0
field max 2.5
field sum 26098173
field sqrsum 43050770.5
bin	-inf	0
bin	0	13482811
bin	0.06	0
bin	0.12	0
bin	0.18	0
bin	0.24	0
bin	0.3	0
bin	0.36	0
bin	0.42	0
bin	0.48	2467693
bin	0.54	0
bin	0.6	0
bin	0.66	0
bin	0.72	0
bin	0.78	0
bin	0.84	0
bin	0.9	0
bin	0.96	1582874
bin	1.02	0
bin	1.08	0
bin	1.14	0
bin	1.2	0
bin	1.26	0
bin	1.32	0
bin	1.38	0
bin	1.44	0
bin	1.5	11296894
bin	1.56	0
bin	1.62	0
bin	1.68	0
bin	1.74	0
bin	1.8	0
bin	1.86	0
bin	1.92	0
bin	1.98	407317
bin	2.04	0
bin	2.1	0
bin	2.16	0
bin	2.22	0
bin	2.28	0
bin	2.34	0
bin	2.4	0
bin	2.46	2208591
bin	2.52	0
bin	2.58	0
bin	2.64	0
scalar Network.dest "Simulation duration (in minutes). By chrono library: " 4.1

