version 2
run General-6-20230911-19:16:07-24828
attr configname General
attr datetime 20230911-19:16:07
attr experiment General
attr inifile omnetpp.ini
attr iterationvars "$endSim=3.12s, $hosts=15000, $SizeDist=i-hadoop, $p=0.5, $scale=1, $alg=PushCount, $diversityTh=2, $pAlg=0.5, $countTh=2, $packetIndexAgg=4, $packetIndexCosw=4, $NumOfToRs=10, $cacheToR=300, $cacheAgg=10*300*0.5, $ThInAgg=4, $thInCons=2.5e9, $rate=1600000000000, $S=PaperResult/PushCount p = 0.5 th in Agg = 4 countTh = 2 App A=(Hadoop 2.5e9 t 4) App B (avg(Hadoop) 2.5e9 d 4)/end time = 3.12s CToR = 300/"
attr iterationvarsf endSim=3.12s,hosts=15000,SizeDist=i-hadoop,p=0.5,scale=1,alg=PushCount,diversityTh=2,pAlg=0.5,countTh=2,packetIndexAgg=4,packetIndexCosw=4,NumOfToRs=10,cacheToR=300,cacheAgg=10#2a300#2a0.5,ThInAgg=4,thInCons=2.5e9,rate=1600000000000,S=PaperResult#2fPushCount_p_=_0.5_th_in_Agg_=_4_countTh_=_2_App_A=(Hadoop_2.5e9_t_4)_App_B_(avg(Hadoop)_2.5e9_d_4)#2fend_time_=_3.12s_CToR_=_300#2f-
attr measurement "$endSim=3.12s, $hosts=15000, $SizeDist=i-hadoop, $p=0.5, $scale=1, $alg=PushCount, $diversityTh=2, $pAlg=0.5, $countTh=2, $packetIndexAgg=4, $packetIndexCosw=4, $NumOfToRs=10, $cacheToR=300, $cacheAgg=10*300*0.5, $ThInAgg=4, $thInCons=2.5e9, $rate=1600000000000, $S=PaperResult/PushCount p = 0.5 th in Agg = 4 countTh = 2 App A=(Hadoop 2.5e9 t 4) App B (avg(Hadoop) 2.5e9 d 4)/end time = 3.12s CToR = 300/"
attr network Network
attr processid 24828
attr repetition 0
attr replication #0
attr resultdir results
attr runnumber 6
attr seedset 6
itervar NumOfToRs 10
itervar S "PaperResult/PushCount p = 0.5 th in Agg = 4 countTh = 2 App A=(Hadoop 2.5e9 t 4) App B (avg(Hadoop) 2.5e9 d 4)/end time = 3.12s CToR = 300/"
itervar SizeDist i-hadoop
itervar ThInAgg 4
itervar alg PushCount
itervar cacheAgg 10*300*0.5
itervar cacheToR 300
itervar countTh 2
itervar diversityTh 2
itervar endSim 3.12s
itervar hosts 15000
itervar p 0.5
itervar pAlg 0.5
itervar packetIndexAgg 4
itervar packetIndexCosw 4
itervar rate 1600000000000
itervar scale 1
itervar thInCons 2.5e9
param Network.estimate_rate_interval 0.5e-3
param Network.policy_size "\"10e6\""
param Network.rack[*].number_of_hosts 15000
param Network.size_distribution "\"size_distribution/i-hadoop.csv\""
param Network.prob_of_app_A 0.5
param Network.scale 1
param Network.algorithm "\"PushCount\""
param Network.diversity_th 2
param Network.p_in_algorithm 0.5
param Network.count_th 2
param Network.packet_index_for_decision_Agg 4
param Network.packet_index_for_decision_cosw 4
param Network.cache_size "\"2222\""
param Network.NumOfToRs 10
param Network.NumOfAggregation 1
param Network.tor[*].max_cache_size 300
param Network.agg[*].max_cache_size 10*300*0.5
param Network.push_threshold_in_aggregation 4
param Network.push_threshold_in_controller_switch 2.5e9
param Network.total_rate_in_tor "\"1600000000000\""
param Network.output_file "\"PaperResult/PushCount p = 0.5 th in Agg = 4 countTh = 2 App A=(Hadoop 2.5e9 t 4) App B (avg(Hadoop) 2.5e9 d 4)/end time = 3.12s CToR = 300/\""
param Network.run_elephant false
param Network.bandwidth_elephant_threshold "\"2.5e9\""
param Network.run_push true
param Network.record_traffic false
param Network.create_offline_traffic false
param Network.linedelay 0.2
param Network.tor[*].threshold 2
param Network.agg[*].threshold 2
param Network.tor[*].Type 1001
param Network.agg[*].Type 1002
param Network.rack[*].host[*].flow_appearance "\"\""
param Network.rack[*].host[*].flow_size "\"\""
param Network.propagation_time "\"\""
param Network.processing_time_on_data_packet_in_sw "\"\""
param Network.processing_time_on_data_packet_in_controller "\"\""
param Network.insertion_delay "\"\""
param Network.eviction_delay "\"\""
param Network.elephant_table_size "\"\""
param Network.flush_elephant_time "\"\""
param Network.check_for_elephant_time "\"\""
param Network.elephant_sample_rx "\"\""
param Network.already_requested_threshold "\"\""
param Network.cache_percentage "\"\""
param Network.eviction_sample_size "\"\""
param Network.inter_arrival_time_between_packets "\"\""
param Network.inter_arrival_time_between_flowlets "\"\""
param Network.inter_arrival_time_between_flows "\"\""
param Network.large_flow "\"\""
param Network.last_flow_appearance "\"0\""
param Network.rack[*].last_flow_appearance 0

scalar Network.controller "prob_of_app_A: " 0.5
scalar Network.tor[0] "max_cache_size: " 300
scalar Network.tor[0] "push threshold: " 0
scalar Network.tor[1] "max_cache_size: " 300
scalar Network.tor[1] "push threshold: " 0
scalar Network.tor[2] "max_cache_size: " 300
scalar Network.tor[2] "push threshold: " 0
scalar Network.tor[3] "max_cache_size: " 300
scalar Network.tor[3] "push threshold: " 0
scalar Network.tor[4] "max_cache_size: " 300
scalar Network.tor[4] "push threshold: " 0
scalar Network.tor[5] "max_cache_size: " 300
scalar Network.tor[5] "push threshold: " 0
scalar Network.tor[6] "max_cache_size: " 300
scalar Network.tor[6] "push threshold: " 0
scalar Network.tor[7] "max_cache_size: " 300
scalar Network.tor[7] "push threshold: " 0
scalar Network.tor[8] "max_cache_size: " 300
scalar Network.tor[8] "push threshold: " 0
scalar Network.tor[9] "max_cache_size: " 300
scalar Network.tor[9] "push threshold: " 0
scalar Network.agg[0] "max_cache_size: " 1500
scalar Network.agg[0] "push threshold: " 4
scalar Network.dest "run_elephant: " 0
scalar Network.dest "run_push: " 1
scalar Network.dest "cache_size: " 2222
scalar Network.dest "scale: " 1
scalar Network.dest "total_rate_in_tor: " 1600000000000
scalar Network.controller "INTERVAL: " 0.00128
scalar Network.controller "insertion_rate: " 24525175
statistic Network.controller Total_bandwidth_hist
field count 93
field mean 589937802419.35
field stddev 18755697187.36
field min 563756250000
field max 725971875000
field sum 54864215625000
field sqrsum 3.2398838205557e+025
bin	-inf	0
bin	520000000000	0
bin	525000000000	0
bin	530000000000	0
bin	535000000000	0
bin	540000000000	0
bin	545000000000	0
bin	550000000000	0
bin	555000000000	0
bin	560000000000	1
bin	565000000000	4
bin	570000000000	8
bin	575000000000	13
bin	580000000000	16
bin	585000000000	7
bin	590000000000	12
bin	595000000000	11
bin	600000000000	12
bin	605000000000	5
bin	610000000000	1
bin	615000000000	2
bin	620000000000	0
bin	625000000000	0
bin	630000000000	0
bin	635000000000	0
bin	640000000000	0
bin	645000000000	0
bin	650000000000	0
bin	655000000000	0
bin	660000000000	0
bin	665000000000	0
bin	670000000000	0
bin	675000000000	0
bin	680000000000	0
bin	685000000000	0
bin	690000000000	0
bin	695000000000	0
bin	700000000000	0
bin	705000000000	0
bin	710000000000	0
bin	715000000000	0
bin	720000000000	0
bin	725000000000	1
bin	730000000000	0
bin	735000000000	0
bin	740000000000	0
bin	745000000000	0
bin	750000000000	0
bin	755000000000	0
bin	760000000000	0
bin	765000000000	0
bin	770000000000	0
statistic Network.rack[0].hub "bandwidth hist"
field count 93
field mean 309456048387.1
field stddev 19680311121.749
field min 279571875000
field max 357215625000
field sum 28779412500000
field sqrsum 8.9415962145703e+024
bin	-inf	0
bin	260000000000	0
bin	262000000000	0
bin	264000000000	0
bin	266000000000	0
bin	268000000000	0
bin	270000000000	0
bin	272000000000	0
bin	274000000000	0
bin	276000000000	0
bin	278000000000	1
bin	280000000000	1
bin	282000000000	1
bin	284000000000	3
bin	286000000000	3
bin	288000000000	1
bin	290000000000	4
bin	292000000000	6
bin	294000000000	9
bin	296000000000	5
bin	298000000000	4
bin	300000000000	4
bin	302000000000	1
bin	304000000000	5
bin	306000000000	4
bin	308000000000	2
bin	310000000000	5
bin	312000000000	4
bin	314000000000	4
bin	316000000000	3
bin	318000000000	1
bin	320000000000	3
bin	322000000000	3
bin	324000000000	0
bin	326000000000	0
bin	328000000000	2
bin	330000000000	0
bin	332000000000	1
bin	334000000000	0
bin	336000000000	0
bin	338000000000	0
bin	340000000000	2
bin	342000000000	1
bin	344000000000	1
bin	346000000000	1
bin	348000000000	5
bin	350000000000	0
bin	352000000000	0
bin	354000000000	1
bin	356000000000	2
bin	358000000000	0
bin	360000000000	0
bin	362000000000	0
bin	364000000000	0
bin	366000000000	0
bin	368000000000	0
bin	370000000000	0
bin	372000000000	0
bin	374000000000	0
bin	376000000000	0
bin	378000000000	0
statistic Network.rack[1].hub "bandwidth hist"
field count 93
field mean 294625201612.9
field stddev 9601221552.0639
field min 273871875000
field max 316987500000
field sum 27400143750000
field sqrsum 8.0812537544531e+024
bin	-inf	0
bin	263000000000	0
bin	264000000000	0
bin	265000000000	0
bin	266000000000	0
bin	267000000000	0
bin	268000000000	0
bin	269000000000	0
bin	270000000000	0
bin	271000000000	0
bin	272000000000	0
bin	273000000000	1
bin	274000000000	1
bin	275000000000	0
bin	276000000000	0
bin	277000000000	1
bin	278000000000	1
bin	279000000000	3
bin	280000000000	1
bin	281000000000	1
bin	282000000000	0
bin	283000000000	1
bin	284000000000	2
bin	285000000000	4
bin	286000000000	5
bin	287000000000	3
bin	288000000000	2
bin	289000000000	4
bin	290000000000	6
bin	291000000000	3
bin	292000000000	2
bin	293000000000	5
bin	294000000000	5
bin	295000000000	4
bin	296000000000	3
bin	297000000000	6
bin	298000000000	3
bin	299000000000	1
bin	300000000000	0
bin	301000000000	4
bin	302000000000	5
bin	303000000000	0
bin	304000000000	2
bin	305000000000	0
bin	306000000000	0
bin	307000000000	2
bin	308000000000	4
bin	309000000000	2
bin	310000000000	1
bin	311000000000	2
bin	312000000000	0
bin	313000000000	1
bin	314000000000	0
bin	315000000000	0
bin	316000000000	2
bin	317000000000	0
bin	318000000000	0
bin	319000000000	0
bin	320000000000	0
bin	321000000000	0
bin	322000000000	0
bin	323000000000	0
bin	324000000000	0
bin	325000000000	0
bin	326000000000	0
bin	327000000000	0
bin	328000000000	0
statistic Network.rack[2].hub "bandwidth hist"
field count 93
field mean 315737701612.9
field stddev 12073979825.831
field min 286987500000
field max 352678125000
field sum 29363606250000
field sqrsum 9.2846093994141e+024
bin	-inf	0
bin	270000000000	0
bin	272000000000	0
bin	274000000000	0
bin	276000000000	0
bin	278000000000	0
bin	280000000000	0
bin	282000000000	0
bin	284000000000	0
bin	286000000000	1
bin	288000000000	0
bin	290000000000	4
bin	292000000000	0
bin	294000000000	1
bin	296000000000	1
bin	298000000000	3
bin	300000000000	2
bin	302000000000	1
bin	304000000000	5
bin	306000000000	5
bin	308000000000	3
bin	310000000000	4
bin	312000000000	11
bin	314000000000	10
bin	316000000000	6
bin	318000000000	3
bin	320000000000	6
bin	322000000000	4
bin	324000000000	5
bin	326000000000	5
bin	328000000000	1
bin	330000000000	3
bin	332000000000	4
bin	334000000000	3
bin	336000000000	0
bin	338000000000	0
bin	340000000000	0
bin	342000000000	1
bin	344000000000	0
bin	346000000000	0
bin	348000000000	0
bin	350000000000	0
bin	352000000000	1
bin	354000000000	0
bin	356000000000	0
bin	358000000000	0
bin	360000000000	0
bin	362000000000	0
bin	364000000000	0
bin	366000000000	0
bin	368000000000	0
bin	370000000000	0
statistic Network.rack[3].hub "bandwidth hist"
field count 93
field mean 317168750000
field stddev 16827481972.697
field min 287971875000
field max 370621875000
field sum 29496693750000
field sqrsum 9.3814805875781e+024
bin	-inf	0
bin	266000000000	0
bin	268000000000	0
bin	270000000000	0
bin	272000000000	0
bin	274000000000	0
bin	276000000000	0
bin	278000000000	0
bin	280000000000	0
bin	282000000000	0
bin	284000000000	0
bin	286000000000	2
bin	288000000000	0
bin	290000000000	2
bin	292000000000	1
bin	294000000000	2
bin	296000000000	2
bin	298000000000	1
bin	300000000000	2
bin	302000000000	3
bin	304000000000	9
bin	306000000000	5
bin	308000000000	9
bin	310000000000	6
bin	312000000000	5
bin	314000000000	3
bin	316000000000	2
bin	318000000000	2
bin	320000000000	6
bin	322000000000	3
bin	324000000000	6
bin	326000000000	2
bin	328000000000	3
bin	330000000000	4
bin	332000000000	0
bin	334000000000	1
bin	336000000000	2
bin	338000000000	3
bin	340000000000	1
bin	342000000000	0
bin	344000000000	0
bin	346000000000	0
bin	348000000000	0
bin	350000000000	1
bin	352000000000	1
bin	354000000000	0
bin	356000000000	0
bin	358000000000	0
bin	360000000000	1
bin	362000000000	1
bin	364000000000	1
bin	366000000000	0
bin	368000000000	0
bin	370000000000	1
bin	372000000000	0
bin	374000000000	0
bin	376000000000	0
bin	378000000000	0
bin	380000000000	0
bin	382000000000	0
bin	384000000000	0
bin	386000000000	0
bin	388000000000	0
bin	390000000000	0
bin	392000000000	0
statistic Network.rack[4].hub "bandwidth hist"
field count 93
field mean 295821572580.65
field stddev 16008156742.727
field min 266737500000
field max 357618750000
field sum 27511406250000
field sqrsum 8.1620434803516e+024
bin	-inf	0
bin	244000000000	0
bin	246000000000	0
bin	248000000000	0
bin	250000000000	0
bin	252000000000	0
bin	254000000000	0
bin	256000000000	0
bin	258000000000	0
bin	260000000000	0
bin	262000000000	0
bin	264000000000	0
bin	266000000000	1
bin	268000000000	1
bin	270000000000	0
bin	272000000000	6
bin	274000000000	4
bin	276000000000	3
bin	278000000000	3
bin	280000000000	4
bin	282000000000	3
bin	284000000000	1
bin	286000000000	2
bin	288000000000	7
bin	290000000000	5
bin	292000000000	1
bin	294000000000	5
bin	296000000000	6
bin	298000000000	2
bin	300000000000	6
bin	302000000000	4
bin	304000000000	2
bin	306000000000	7
bin	308000000000	7
bin	310000000000	2
bin	312000000000	1
bin	314000000000	3
bin	316000000000	2
bin	318000000000	1
bin	320000000000	0
bin	322000000000	0
bin	324000000000	1
bin	326000000000	0
bin	328000000000	1
bin	330000000000	0
bin	332000000000	1
bin	334000000000	0
bin	336000000000	0
bin	338000000000	0
bin	340000000000	0
bin	342000000000	0
bin	344000000000	0
bin	346000000000	0
bin	348000000000	0
bin	350000000000	0
bin	352000000000	0
bin	354000000000	0
bin	356000000000	1
bin	358000000000	0
bin	360000000000	0
bin	362000000000	0
bin	364000000000	0
bin	366000000000	0
bin	368000000000	0
bin	370000000000	0
bin	372000000000	0
bin	374000000000	0
bin	376000000000	0
bin	378000000000	0
bin	380000000000	0
bin	382000000000	0
statistic Network.rack[5].hub "bandwidth hist"
field count 93
field mean 312076814516.13
field stddev 14106739940.053
field min 288721875000
field max 348365625000
field sum 29023143750000
field sqrsum 9.0757582590234e+024
bin	-inf	0
bin	273000000000	0
bin	274000000000	0
bin	275000000000	0
bin	276000000000	0
bin	277000000000	0
bin	278000000000	0
bin	279000000000	0
bin	280000000000	0
bin	281000000000	0
bin	282000000000	0
bin	283000000000	0
bin	284000000000	0
bin	285000000000	0
bin	286000000000	0
bin	287000000000	0
bin	288000000000	1
bin	289000000000	1
bin	290000000000	2
bin	291000000000	1
bin	292000000000	1
bin	293000000000	0
bin	294000000000	1
bin	295000000000	1
bin	296000000000	1
bin	297000000000	6
bin	298000000000	3
bin	299000000000	6
bin	300000000000	2
bin	301000000000	4
bin	302000000000	3
bin	303000000000	1
bin	304000000000	1
bin	305000000000	4
bin	306000000000	1
bin	307000000000	1
bin	308000000000	2
bin	309000000000	1
bin	310000000000	1
bin	311000000000	3
bin	312000000000	2
bin	313000000000	0
bin	314000000000	2
bin	315000000000	3
bin	316000000000	1
bin	317000000000	4
bin	318000000000	4
bin	319000000000	7
bin	320000000000	1
bin	321000000000	1
bin	322000000000	1
bin	323000000000	3
bin	324000000000	1
bin	325000000000	0
bin	326000000000	2
bin	327000000000	1
bin	328000000000	0
bin	329000000000	1
bin	330000000000	1
bin	331000000000	0
bin	332000000000	1
bin	333000000000	1
bin	334000000000	1
bin	335000000000	1
bin	336000000000	0
bin	337000000000	1
bin	338000000000	1
bin	339000000000	1
bin	340000000000	0
bin	341000000000	0
bin	342000000000	1
bin	343000000000	0
bin	344000000000	0
bin	345000000000	0
bin	346000000000	0
bin	347000000000	0
bin	348000000000	2
bin	349000000000	0
bin	350000000000	0
bin	351000000000	0
bin	352000000000	0
bin	353000000000	0
bin	354000000000	0
bin	355000000000	0
bin	356000000000	0
bin	357000000000	0
bin	358000000000	0
bin	359000000000	0
bin	360000000000	0
bin	361000000000	0
bin	362000000000	0
bin	363000000000	0
bin	364000000000	0
statistic Network.rack[6].hub "bandwidth hist"
field count 93
field mean 335307560483.87
field stddev 17760183590.331
field min 294159375000
field max 373471875000
field sum 31183603125000
field sqrsum 1.0485116910088e+025
bin	-inf	0
bin	274000000000	0
bin	276000000000	0
bin	278000000000	0
bin	280000000000	0
bin	282000000000	0
bin	284000000000	0
bin	286000000000	0
bin	288000000000	0
bin	290000000000	0
bin	292000000000	0
bin	294000000000	1
bin	296000000000	0
bin	298000000000	1
bin	300000000000	1
bin	302000000000	2
bin	304000000000	2
bin	306000000000	2
bin	308000000000	0
bin	310000000000	0
bin	312000000000	1
bin	314000000000	3
bin	316000000000	2
bin	318000000000	5
bin	320000000000	1
bin	322000000000	6
bin	324000000000	1
bin	326000000000	6
bin	328000000000	2
bin	330000000000	3
bin	332000000000	1
bin	334000000000	6
bin	336000000000	5
bin	338000000000	4
bin	340000000000	5
bin	342000000000	5
bin	344000000000	2
bin	346000000000	3
bin	348000000000	2
bin	350000000000	2
bin	352000000000	2
bin	354000000000	2
bin	356000000000	4
bin	358000000000	3
bin	360000000000	3
bin	362000000000	2
bin	364000000000	2
bin	366000000000	0
bin	368000000000	0
bin	370000000000	0
bin	372000000000	1
bin	374000000000	0
bin	376000000000	0
bin	378000000000	0
bin	380000000000	0
bin	382000000000	0
bin	384000000000	0
bin	386000000000	0
bin	388000000000	0
bin	390000000000	0
bin	392000000000	0
bin	394000000000	0
statistic Network.rack[7].hub "bandwidth hist"
field count 93
field mean 319674193548.39
field stddev 13373292687.59
field min 293812500000
field max 351703125000
field sum 29729700000000
field sqrsum 9.5202716080078e+024
bin	-inf	0
bin	279000000000	0
bin	280000000000	0
bin	281000000000	0
bin	282000000000	0
bin	283000000000	0
bin	284000000000	0
bin	285000000000	0
bin	286000000000	0
bin	287000000000	0
bin	288000000000	0
bin	289000000000	0
bin	290000000000	0
bin	291000000000	0
bin	292000000000	0
bin	293000000000	1
bin	294000000000	2
bin	295000000000	0
bin	296000000000	0
bin	297000000000	2
bin	298000000000	2
bin	299000000000	0
bin	300000000000	1
bin	301000000000	3
bin	302000000000	3
bin	303000000000	2
bin	304000000000	0
bin	305000000000	1
bin	306000000000	1
bin	307000000000	1
bin	308000000000	0
bin	309000000000	0
bin	310000000000	7
bin	311000000000	3
bin	312000000000	2
bin	313000000000	2
bin	314000000000	1
bin	315000000000	4
bin	316000000000	2
bin	317000000000	2
bin	318000000000	0
bin	319000000000	4
bin	320000000000	2
bin	321000000000	5
bin	322000000000	5
bin	323000000000	1
bin	324000000000	4
bin	325000000000	0
bin	326000000000	3
bin	327000000000	2
bin	328000000000	2
bin	329000000000	0
bin	330000000000	1
bin	331000000000	3
bin	332000000000	3
bin	333000000000	0
bin	334000000000	1
bin	335000000000	1
bin	336000000000	4
bin	337000000000	1
bin	338000000000	1
bin	339000000000	3
bin	340000000000	0
bin	341000000000	0
bin	342000000000	2
bin	343000000000	2
bin	344000000000	0
bin	345000000000	0
bin	346000000000	0
bin	347000000000	0
bin	348000000000	0
bin	349000000000	0
bin	350000000000	0
bin	351000000000	1
bin	352000000000	0
bin	353000000000	0
bin	354000000000	0
bin	355000000000	0
bin	356000000000	0
bin	357000000000	0
bin	358000000000	0
bin	359000000000	0
bin	360000000000	0
bin	361000000000	0
bin	362000000000	0
bin	363000000000	0
bin	364000000000	0
bin	365000000000	0
bin	366000000000	0
bin	367000000000	0
statistic Network.rack[8].hub "bandwidth hist"
field count 93
field mean 342499294354.84
field stddev 16292785823.481
field min 308118750000
field max 388537500000
field sum 31852434375000
field sqrsum 1.0933858144951e+025
bin	-inf	0
bin	288000000000	0
bin	290000000000	0
bin	292000000000	0
bin	294000000000	0
bin	296000000000	0
bin	298000000000	0
bin	300000000000	0
bin	302000000000	0
bin	304000000000	0
bin	306000000000	0
bin	308000000000	1
bin	310000000000	2
bin	312000000000	0
bin	314000000000	0
bin	316000000000	1
bin	318000000000	2
bin	320000000000	4
bin	322000000000	4
bin	324000000000	2
bin	326000000000	3
bin	328000000000	4
bin	330000000000	4
bin	332000000000	5
bin	334000000000	2
bin	336000000000	3
bin	338000000000	4
bin	340000000000	6
bin	342000000000	5
bin	344000000000	4
bin	346000000000	0
bin	348000000000	5
bin	350000000000	6
bin	352000000000	2
bin	354000000000	4
bin	356000000000	1
bin	358000000000	5
bin	360000000000	2
bin	362000000000	3
bin	364000000000	3
bin	366000000000	1
bin	368000000000	1
bin	370000000000	1
bin	372000000000	2
bin	374000000000	0
bin	376000000000	0
bin	378000000000	0
bin	380000000000	0
bin	382000000000	0
bin	384000000000	0
bin	386000000000	0
bin	388000000000	1
bin	390000000000	0
bin	392000000000	0
bin	394000000000	0
bin	396000000000	0
bin	398000000000	0
bin	400000000000	0
bin	402000000000	0
bin	404000000000	0
bin	406000000000	0
bin	408000000000	0
bin	410000000000	0
statistic Network.rack[9].hub "bandwidth hist"
field count 93
field mean 303421169354.84
field stddev 18665835264.127
field min 269868750000
field max 360890625000
field sum 28218168750000
field sqrsum 8.5940437925391e+024
bin	-inf	0
bin	246000000000	0
bin	248000000000	0
bin	250000000000	0
bin	252000000000	0
bin	254000000000	0
bin	256000000000	0
bin	258000000000	0
bin	260000000000	0
bin	262000000000	0
bin	264000000000	0
bin	266000000000	0
bin	268000000000	1
bin	270000000000	0
bin	272000000000	0
bin	274000000000	0
bin	276000000000	3
bin	278000000000	1
bin	280000000000	2
bin	282000000000	2
bin	284000000000	3
bin	286000000000	5
bin	288000000000	1
bin	290000000000	4
bin	292000000000	9
bin	294000000000	11
bin	296000000000	4
bin	298000000000	5
bin	300000000000	6
bin	302000000000	4
bin	304000000000	2
bin	306000000000	2
bin	308000000000	1
bin	310000000000	3
bin	312000000000	3
bin	314000000000	0
bin	316000000000	2
bin	318000000000	2
bin	320000000000	1
bin	322000000000	3
bin	324000000000	0
bin	326000000000	2
bin	328000000000	0
bin	330000000000	3
bin	332000000000	0
bin	334000000000	2
bin	336000000000	0
bin	338000000000	1
bin	340000000000	1
bin	342000000000	0
bin	344000000000	1
bin	346000000000	0
bin	348000000000	0
bin	350000000000	0
bin	352000000000	2
bin	354000000000	0
bin	356000000000	0
bin	358000000000	0
bin	360000000000	1
bin	362000000000	0
bin	364000000000	0
bin	366000000000	0
bin	368000000000	0
bin	370000000000	0
bin	372000000000	0
bin	374000000000	0
bin	376000000000	0
bin	378000000000	0
bin	380000000000	0
bin	382000000000	0
bin	384000000000	0
scalar Network.tor[0] "Bandwidth: " 309516500000
statistic Network.tor[0] "flow count"
field count 93
field mean 792.11827956989
field stddev 12.398149811445
field min 769
field max 822
field sum 73667
field sqrsum 58367119
bin	-inf	0
bin	755	0
bin	756	0
bin	757	0
bin	758	0
bin	759	0
bin	760	0
bin	761	0
bin	762	0
bin	763	0
bin	764	0
bin	765	0
bin	766	0
bin	767	0
bin	768	0
bin	769	3
bin	770	0
bin	771	1
bin	772	3
bin	773	0
bin	774	0
bin	775	4
bin	776	3
bin	777	2
bin	778	2
bin	779	2
bin	780	0
bin	781	0
bin	782	1
bin	783	2
bin	784	1
bin	785	3
bin	786	3
bin	787	1
bin	788	2
bin	789	5
bin	790	3
bin	791	2
bin	792	4
bin	793	5
bin	794	3
bin	795	3
bin	796	2
bin	797	1
bin	798	1
bin	799	3
bin	800	3
bin	801	1
bin	802	1
bin	803	1
bin	804	6
bin	805	1
bin	806	2
bin	807	3
bin	808	3
bin	809	2
bin	810	1
bin	811	1
bin	812	0
bin	813	0
bin	814	0
bin	815	0
bin	816	1
bin	817	0
bin	818	0
bin	819	1
bin	820	0
bin	821	0
bin	822	1
bin	823	0
bin	824	0
bin	825	0
bin	826	0
bin	827	0
bin	828	0
bin	829	0
bin	830	0
bin	831	0
bin	832	0
bin	833	0
bin	834	0
bin	835	0
bin	836	0
statistic Network.tor[0] cache_occupancy
field count 93
field mean 300
field stddev 0
field min 300
field max 300
field sum 27900
field sqrsum 8370000
bin	-inf	0
bin	299	0
bin	300	93
bin	301	0
statistic Network.tor[0] activity_time_of_a_rule_A
field count 26738
field mean 0.00042776570761673
field stddev 0.00068254772840578
field min 0
field max 0.026747355434
field sum 11.437599490256
field sqrsum 0.017348616502679
bin	-inf	0
bin	0	19263
bin	0.00048	4671
bin	0.00096	1514
bin	0.00144	581
bin	0.00192	251
bin	0.0024	146
bin	0.00288	88
bin	0.00336	57
bin	0.00384	39
bin	0.00432	31
bin	0.0048	21
bin	0.00528	16
bin	0.00576	10
bin	0.00624	7
bin	0.00672	12
bin	0.0072	9
bin	0.00768	7
bin	0.00816	5
bin	0.00864	3
bin	0.00912	1
bin	0.0096	0
bin	0.01008	1
bin	0.01056	0
bin	0.01104	1
bin	0.01152	1
bin	0.012	0
bin	0.01248	0
bin	0.01296	0
bin	0.01344	0
bin	0.01392	0
bin	0.0144	0
bin	0.01488	0
bin	0.01536	1
bin	0.01584	0
bin	0.01632	0
bin	0.0168	0
bin	0.01728	0
bin	0.01776	0
bin	0.01824	0
bin	0.01872	0
bin	0.0192	1
bin	0.01968	0
bin	0.02016	0
bin	0.02064	0
bin	0.02112	0
bin	0.0216	0
bin	0.02208	0
bin	0.02256	0
bin	0.02304	0
bin	0.02352	0
bin	0.024	0
bin	0.02448	0
bin	0.02496	0
bin	0.02544	0
bin	0.02592	0
bin	0.0264	1
bin	0.02688	0
statistic Network.tor[0] activity_time_of_a_rule_B
field count 78685
field mean 0.00015563924423726
field stddev 0.00025580201579368
field min 0
field max 0.007143965901
field sum 12.246473932809
field sqrsum 0.0070546936227926
bin	-inf	0
bin	0	40478
bin	8e-005	14150
bin	0.00016	8205
bin	0.00024	5089
bin	0.00032	3276
bin	0.0004	2000
bin	0.00048	1339
bin	0.00056	978
bin	0.00064	679
bin	0.00072	557
bin	0.0008	373
bin	0.00088	272
bin	0.00096	228
bin	0.00104	161
bin	0.00112	126
bin	0.0012	125
bin	0.00128	94
bin	0.00136	74
bin	0.00144	63
bin	0.00152	50
bin	0.0016	40
bin	0.00168	32
bin	0.00176	38
bin	0.00184	29
bin	0.00192	23
bin	0.002	22
bin	0.00208	21
bin	0.00216	11
bin	0.00224	11
bin	0.00232	15
bin	0.0024	15
bin	0.00248	11
bin	0.00256	12
bin	0.00264	14
bin	0.00272	10
bin	0.0028	11
bin	0.00288	5
bin	0.00296	7
bin	0.00304	4
bin	0.00312	6
bin	0.0032	2
bin	0.00328	3
bin	0.00336	1
bin	0.00344	4
bin	0.00352	3
bin	0.0036	1
bin	0.00368	3
bin	0.00376	4
bin	0.00384	1
bin	0.00392	3
bin	0.004	0
bin	0.00408	1
bin	0.00416	0
bin	0.00424	1
bin	0.00432	0
bin	0.0044	0
bin	0.00448	0
bin	0.00456	0
bin	0.00464	0
bin	0.00472	0
bin	0.0048	1
bin	0.00488	0
bin	0.00496	0
bin	0.00504	0
bin	0.00512	0
bin	0.0052	0
bin	0.00528	0
bin	0.00536	0
bin	0.00544	1
bin	0.00552	0
bin	0.0056	0
bin	0.00568	0
bin	0.00576	0
bin	0.00584	0
bin	0.00592	0
bin	0.006	0
bin	0.00608	0
bin	0.00616	1
bin	0.00624	0
bin	0.00632	0
bin	0.0064	0
bin	0.00648	0
bin	0.00656	0
bin	0.00664	0
bin	0.00672	0
bin	0.0068	0
bin	0.00688	0
bin	0.00696	0
bin	0.00704	0
bin	0.00712	1
bin	0.0072	0
scalar Network.tor[0] "cache_content_by_app: " 0.45714285714286
scalar Network.tor[1] "Bandwidth: " 294613500000
statistic Network.tor[1] "flow count"
field count 93
field mean 792.70967741935
field stddev 19.704104982356
field min 753
field max 838
field sum 73722
field sqrsum 58475862
bin	-inf	0
bin	730	0
bin	732	0
bin	734	0
bin	736	0
bin	738	0
bin	740	0
bin	742	0
bin	744	0
bin	746	0
bin	748	0
bin	750	0
bin	752	1
bin	754	1
bin	756	1
bin	758	1
bin	760	2
bin	762	1
bin	764	2
bin	766	1
bin	768	1
bin	770	3
bin	772	1
bin	774	2
bin	776	4
bin	778	1
bin	780	5
bin	782	3
bin	784	4
bin	786	3
bin	788	5
bin	790	1
bin	792	6
bin	794	2
bin	796	6
bin	798	3
bin	800	5
bin	802	4
bin	804	3
bin	806	3
bin	808	2
bin	810	2
bin	812	0
bin	814	2
bin	816	2
bin	818	0
bin	820	1
bin	822	1
bin	824	2
bin	826	0
bin	828	0
bin	830	2
bin	832	2
bin	834	0
bin	836	0
bin	838	2
bin	840	0
bin	842	0
bin	844	0
bin	846	0
bin	848	0
bin	850	0
bin	852	0
bin	854	0
bin	856	0
bin	858	0
bin	860	0
statistic Network.tor[1] cache_occupancy
field count 93
field mean 300
field stddev 0
field min 300
field max 300
field sum 27900
field sqrsum 8370000
bin	-inf	0
bin	299	0
bin	300	93
bin	301	0
statistic Network.tor[1] activity_time_of_a_rule_A
field count 24123
field mean 0.00044930515265979
field stddev 0.00068646970357725
field min 0
field max 0.01761581898
field sum 10.838588197612
field sqrsum 0.01623710057883
bin	-inf	0
bin	0	10695
bin	0.0002	4986
bin	0.0004	2915
bin	0.0006	1781
bin	0.0008	1155
bin	0.001	687
bin	0.0012	457
bin	0.0014	344
bin	0.0016	262
bin	0.0018	183
bin	0.002	119
bin	0.0022	85
bin	0.0024	70
bin	0.0026	63
bin	0.0028	34
bin	0.003	44
bin	0.0032	32
bin	0.0034	19
bin	0.0036	17
bin	0.0038	16
bin	0.004	28
bin	0.0042	14
bin	0.0044	18
bin	0.0046	11
bin	0.0048	10
bin	0.005	6
bin	0.0052	12
bin	0.0054	3
bin	0.0056	4
bin	0.0058	7
bin	0.006	2
bin	0.0062	1
bin	0.0064	1
bin	0.0066	3
bin	0.0068	5
bin	0.007	3
bin	0.0072	7
bin	0.0074	3
bin	0.0076	3
bin	0.0078	4
bin	0.008	2
bin	0.0082	1
bin	0.0084	1
bin	0.0086	1
bin	0.0088	0
bin	0.009	0
bin	0.0092	2
bin	0.0094	0
bin	0.0096	0
bin	0.0098	0
bin	0.01	1
bin	0.0102	1
bin	0.0104	0
bin	0.0106	3
bin	0.0108	0
bin	0.011	0
bin	0.0112	0
bin	0.0114	0
bin	0.0116	0
bin	0.0118	0
bin	0.012	0
bin	0.0122	0
bin	0.0124	0
bin	0.0126	0
bin	0.0128	0
bin	0.013	0
bin	0.0132	0
bin	0.0134	0
bin	0.0136	0
bin	0.0138	0
bin	0.014	0
bin	0.0142	0
bin	0.0144	0
bin	0.0146	0
bin	0.0148	0
bin	0.015	0
bin	0.0152	1
bin	0.0154	0
bin	0.0156	0
bin	0.0158	0
bin	0.016	0
bin	0.0162	0
bin	0.0164	0
bin	0.0166	0
bin	0.0168	0
bin	0.017	0
bin	0.0172	0
bin	0.0174	0
bin	0.0176	1
bin	0.0178	0
statistic Network.tor[1] activity_time_of_a_rule_B
field count 80725
field mean 0.00015835192908492
field stddev 0.00025226640581657
field min 0
field max 0.004427102563
field sum 12.78295947538
field sqrsum 0.0071613476104303
bin	-inf	0
bin	0	40957
bin	8e-005	14416
bin	0.00016	8670
bin	0.00024	5281
bin	0.00032	3286
bin	0.0004	2206
bin	0.00048	1599
bin	0.00056	1037
bin	0.00064	727
bin	0.00072	501
bin	0.0008	391
bin	0.00088	306
bin	0.00096	254
bin	0.00104	170
bin	0.00112	153
bin	0.0012	99
bin	0.00128	92
bin	0.00136	97
bin	0.00144	58
bin	0.00152	53
bin	0.0016	54
bin	0.00168	45
bin	0.00176	33
bin	0.00184	24
bin	0.00192	24
bin	0.002	19
bin	0.00208	19
bin	0.00216	13
bin	0.00224	17
bin	0.00232	12
bin	0.0024	9
bin	0.00248	11
bin	0.00256	10
bin	0.00264	12
bin	0.00272	8
bin	0.0028	7
bin	0.00288	9
bin	0.00296	2
bin	0.00304	9
bin	0.00312	6
bin	0.0032	5
bin	0.00328	6
bin	0.00336	3
bin	0.00344	4
bin	0.00352	2
bin	0.0036	0
bin	0.00368	1
bin	0.00376	2
bin	0.00384	1
bin	0.00392	2
bin	0.004	1
bin	0.00408	0
bin	0.00416	1
bin	0.00424	0
bin	0.00432	0
bin	0.0044	1
bin	0.00448	0
scalar Network.tor[1] "cache_content_by_app: " 0.40562248995984
scalar Network.tor[2] "Bandwidth: " 315588700000
statistic Network.tor[2] "flow count"
field count 93
field mean 792.69892473118
field stddev 19.185470581665
field min 746
field max 835
field sum 73721
field sqrsum 58472421
bin	-inf	0
bin	722	0
bin	724	0
bin	726	0
bin	728	0
bin	730	0
bin	732	0
bin	734	0
bin	736	0
bin	738	0
bin	740	0
bin	742	0
bin	744	0
bin	746	1
bin	748	0
bin	750	0
bin	752	0
bin	754	1
bin	756	2
bin	758	1
bin	760	2
bin	762	3
bin	764	1
bin	766	1
bin	768	2
bin	770	1
bin	772	1
bin	774	2
bin	776	0
bin	778	1
bin	780	2
bin	782	4
bin	784	1
bin	786	4
bin	788	6
bin	790	3
bin	792	8
bin	794	5
bin	796	8
bin	798	5
bin	800	2
bin	802	3
bin	804	3
bin	806	3
bin	808	1
bin	810	1
bin	812	0
bin	814	2
bin	816	4
bin	818	0
bin	820	1
bin	822	1
bin	824	1
bin	826	2
bin	828	2
bin	830	1
bin	832	0
bin	834	1
bin	836	0
bin	838	0
bin	840	0
bin	842	0
bin	844	0
bin	846	0
bin	848	0
bin	850	0
bin	852	0
bin	854	0
bin	856	0
bin	858	0
statistic Network.tor[2] cache_occupancy
field count 93
field mean 300
field stddev 0
field min 300
field max 300
field sum 27900
field sqrsum 8370000
bin	-inf	0
bin	299	0
bin	300	93
bin	301	0
statistic Network.tor[2] activity_time_of_a_rule_A
field count 27926
field mean 0.00042459875060048
field stddev 0.00067518133308583
field min 0
field max 0.018858369717
field sum 11.857344709269
field sqrsum 0.017764778822885
bin	-inf	0
bin	0	16863
bin	0.00032	5667
bin	0.00064	2474
bin	0.00096	1194
bin	0.00128	617
bin	0.0016	329
bin	0.00192	191
bin	0.00224	149
bin	0.00256	96
bin	0.00288	79
bin	0.0032	59
bin	0.00352	39
bin	0.00384	34
bin	0.00416	23
bin	0.00448	13
bin	0.0048	17
bin	0.00512	11
bin	0.00544	10
bin	0.00576	6
bin	0.00608	3
bin	0.0064	8
bin	0.00672	4
bin	0.00704	7
bin	0.00736	6
bin	0.00768	6
bin	0.008	4
bin	0.00832	1
bin	0.00864	4
bin	0.00896	2
bin	0.00928	0
bin	0.0096	1
bin	0.00992	2
bin	0.01024	1
bin	0.01056	0
bin	0.01088	0
bin	0.0112	0
bin	0.01152	1
bin	0.01184	1
bin	0.01216	0
bin	0.01248	0
bin	0.0128	2
bin	0.01312	1
bin	0.01344	0
bin	0.01376	0
bin	0.01408	0
bin	0.0144	0
bin	0.01472	0
bin	0.01504	0
bin	0.01536	0
bin	0.01568	0
bin	0.016	0
bin	0.01632	0
bin	0.01664	0
bin	0.01696	0
bin	0.01728	0
bin	0.0176	0
bin	0.01792	0
bin	0.01824	0
bin	0.01856	1
bin	0.01888	0
statistic Network.tor[2] activity_time_of_a_rule_B
field count 78300
field mean 0.00015047769026333
field stddev 0.00024525583595121
field min 0
field max 0.005466454528
field sum 11.782403147619
field sqrsum 0.0064827069438144
bin	-inf	0
bin	0	41035
bin	8e-005	13948
bin	0.00016	8220
bin	0.00024	4826
bin	0.00032	3106
bin	0.0004	1947
bin	0.00048	1367
bin	0.00056	890
bin	0.00064	659
bin	0.00072	468
bin	0.0008	356
bin	0.00088	275
bin	0.00096	222
bin	0.00104	158
bin	0.00112	125
bin	0.0012	89
bin	0.00128	80
bin	0.00136	64
bin	0.00144	42
bin	0.00152	63
bin	0.0016	59
bin	0.00168	35
bin	0.00176	34
bin	0.00184	20
bin	0.00192	28
bin	0.002	28
bin	0.00208	17
bin	0.00216	15
bin	0.00224	11
bin	0.00232	13
bin	0.0024	11
bin	0.00248	15
bin	0.00256	9
bin	0.00264	9
bin	0.00272	8
bin	0.0028	9
bin	0.00288	4
bin	0.00296	4
bin	0.00304	3
bin	0.00312	5
bin	0.0032	4
bin	0.00328	2
bin	0.00336	2
bin	0.00344	2
bin	0.00352	4
bin	0.0036	5
bin	0.00368	1
bin	0.00376	0
bin	0.00384	0
bin	0.00392	1
bin	0.004	0
bin	0.00408	0
bin	0.00416	0
bin	0.00424	0
bin	0.00432	0
bin	0.0044	0
bin	0.00448	1
bin	0.00456	0
bin	0.00464	0
bin	0.00472	0
bin	0.0048	0
bin	0.00488	0
bin	0.00496	0
bin	0.00504	0
bin	0.00512	0
bin	0.0052	0
bin	0.00528	0
bin	0.00536	0
bin	0.00544	1
bin	0.00552	0
scalar Network.tor[2] "cache_content_by_app: " 0.51652892561983
scalar Network.tor[3] "Bandwidth: " 317210600000
statistic Network.tor[3] "flow count"
field count 93
field mean 798.13978494624
field stddev 19.801510371603
field min 753
field max 848
field sum 74227
field sqrsum 59279595
bin	-inf	0
bin	728	0
bin	730	0
bin	732	0
bin	734	0
bin	736	0
bin	738	0
bin	740	0
bin	742	0
bin	744	0
bin	746	0
bin	748	0
bin	750	0
bin	752	1
bin	754	0
bin	756	0
bin	758	0
bin	760	1
bin	762	0
bin	764	2
bin	766	2
bin	768	2
bin	770	1
bin	772	0
bin	774	2
bin	776	1
bin	778	3
bin	780	3
bin	782	2
bin	784	3
bin	786	5
bin	788	4
bin	790	5
bin	792	4
bin	794	1
bin	796	6
bin	798	3
bin	800	4
bin	802	4
bin	804	3
bin	806	3
bin	808	3
bin	810	4
bin	812	2
bin	814	2
bin	816	3
bin	818	2
bin	820	1
bin	822	0
bin	824	2
bin	826	2
bin	828	1
bin	830	0
bin	832	0
bin	834	1
bin	836	0
bin	838	1
bin	840	1
bin	842	1
bin	844	1
bin	846	0
bin	848	1
bin	850	0
bin	852	0
bin	854	0
bin	856	0
bin	858	0
bin	860	0
bin	862	0
bin	864	0
bin	866	0
bin	868	0
bin	870	0
bin	872	0
statistic Network.tor[3] cache_occupancy
field count 93
field mean 300
field stddev 0
field min 300
field max 300
field sum 27900
field sqrsum 8370000
bin	-inf	0
bin	299	0
bin	300	93
bin	301	0
statistic Network.tor[3] activity_time_of_a_rule_A
field count 28085
field mean 0.0004157172904266
field stddev 0.00065867461453791
field min 0
field max 0.016384134327
field sum 11.675420101631
field sqrsum 0.017037980537487
bin	-inf	0
bin	0	17068
bin	0.00032	5713
bin	0.00064	2421
bin	0.00096	1170
bin	0.00128	652
bin	0.0016	376
bin	0.00192	191
bin	0.00224	122
bin	0.00256	73
bin	0.00288	70
bin	0.0032	36
bin	0.00352	38
bin	0.00384	17
bin	0.00416	27
bin	0.00448	13
bin	0.0048	14
bin	0.00512	15
bin	0.00544	8
bin	0.00576	6
bin	0.00608	8
bin	0.0064	7
bin	0.00672	5
bin	0.00704	6
bin	0.00736	3
bin	0.00768	2
bin	0.008	4
bin	0.00832	1
bin	0.00864	4
bin	0.00896	0
bin	0.00928	0
bin	0.0096	2
bin	0.00992	2
bin	0.01024	1
bin	0.01056	0
bin	0.01088	2
bin	0.0112	1
bin	0.01152	3
bin	0.01184	1
bin	0.01216	0
bin	0.01248	1
bin	0.0128	0
bin	0.01312	0
bin	0.01344	1
bin	0.01376	0
bin	0.01408	0
bin	0.0144	0
bin	0.01472	0
bin	0.01504	0
bin	0.01536	0
bin	0.01568	0
bin	0.016	0
bin	0.01632	1
bin	0.01664	0
statistic Network.tor[3] activity_time_of_a_rule_B
field count 80818
field mean 0.00014823316945011
field stddev 0.00023759169441095
field min 0
field max 0.005325161357
field sum 11.979908288619
field sqrsum 0.0063379243330166
bin	-inf	0
bin	0	37289
bin	6e-005	13352
bin	0.00012	8752
bin	0.00018	5971
bin	0.00024	4026
bin	0.0003	2725
bin	0.00036	1995
bin	0.00042	1486
bin	0.00048	1083
bin	0.00054	837
bin	0.0006	614
bin	0.00066	467
bin	0.00072	373
bin	0.00078	285
bin	0.00084	232
bin	0.0009	193
bin	0.00096	145
bin	0.00102	134
bin	0.00108	107
bin	0.00114	88
bin	0.0012	69
bin	0.00126	57
bin	0.00132	71
bin	0.00138	53
bin	0.00144	53
bin	0.0015	33
bin	0.00156	25
bin	0.00162	29
bin	0.00168	27
bin	0.00174	25
bin	0.0018	21
bin	0.00186	15
bin	0.00192	17
bin	0.00198	14
bin	0.00204	17
bin	0.0021	14
bin	0.00216	11
bin	0.00222	8
bin	0.00228	13
bin	0.00234	8
bin	0.0024	9
bin	0.00246	5
bin	0.00252	4
bin	0.00258	5
bin	0.00264	9
bin	0.0027	8
bin	0.00276	6
bin	0.00282	4
bin	0.00288	3
bin	0.00294	4
bin	0.003	2
bin	0.00306	2
bin	0.00312	2
bin	0.00318	3
bin	0.00324	3
bin	0.0033	1
bin	0.00336	2
bin	0.00342	2
bin	0.00348	1
bin	0.00354	1
bin	0.0036	0
bin	0.00366	0
bin	0.00372	0
bin	0.00378	0
bin	0.00384	3
bin	0.0039	1
bin	0.00396	0
bin	0.00402	0
bin	0.00408	0
bin	0.00414	1
bin	0.0042	1
bin	0.00426	0
bin	0.00432	0
bin	0.00438	0
bin	0.00444	0
bin	0.0045	0
bin	0.00456	0
bin	0.00462	0
bin	0.00468	0
bin	0.00474	0
bin	0.0048	1
bin	0.00486	0
bin	0.00492	0
bin	0.00498	0
bin	0.00504	0
bin	0.0051	0
bin	0.00516	0
bin	0.00522	0
bin	0.00528	1
bin	0.00534	0
scalar Network.tor[3] "cache_content_by_app: " 0.46530612244898
scalar Network.tor[4] "Bandwidth: " 296364400000
statistic Network.tor[4] "flow count"
field count 93
field mean 769.66666666667
field stddev 18.107969260097
field min 739
field max 807
field sum 71579
field sqrsum 55122137
bin	-inf	0
bin	722	0
bin	724	0
bin	726	0
bin	728	0
bin	730	0
bin	732	0
bin	734	0
bin	736	0
bin	738	1
bin	740	6
bin	742	2
bin	744	3
bin	746	1
bin	748	3
bin	750	1
bin	752	2
bin	754	1
bin	756	4
bin	758	2
bin	760	6
bin	762	6
bin	764	5
bin	766	2
bin	768	1
bin	770	7
bin	772	2
bin	774	3
bin	776	4
bin	778	4
bin	780	2
bin	782	1
bin	784	0
bin	786	2
bin	788	4
bin	790	4
bin	792	3
bin	794	3
bin	796	3
bin	798	1
bin	800	0
bin	802	3
bin	804	0
bin	806	1
bin	808	0
bin	810	0
bin	812	0
bin	814	0
bin	816	0
bin	818	0
bin	820	0
bin	822	0
bin	824	0
statistic Network.tor[4] cache_occupancy
field count 93
field mean 300
field stddev 0
field min 300
field max 300
field sum 27900
field sqrsum 8370000
bin	-inf	0
bin	299	0
bin	300	93
bin	301	0
statistic Network.tor[4] activity_time_of_a_rule_A
field count 22001
field mean 0.00048880761955356
field stddev 0.00073996185213978
field min 0
field max 0.013578522863
field sum 10.754256437798
field sqrsum 0.017302720427115
bin	-inf	0
bin	0	9360
bin	0.0002	4394
bin	0.0004	2604
bin	0.0006	1771
bin	0.0008	1087
bin	0.001	756
bin	0.0012	552
bin	0.0014	353
bin	0.0016	229
bin	0.0018	152
bin	0.002	130
bin	0.0022	93
bin	0.0024	81
bin	0.0026	51
bin	0.0028	54
bin	0.003	35
bin	0.0032	33
bin	0.0034	34
bin	0.0036	36
bin	0.0038	22
bin	0.004	20
bin	0.0042	19
bin	0.0044	20
bin	0.0046	12
bin	0.0048	9
bin	0.005	6
bin	0.0052	15
bin	0.0054	3
bin	0.0056	5
bin	0.0058	7
bin	0.006	7
bin	0.0062	5
bin	0.0064	4
bin	0.0066	1
bin	0.0068	7
bin	0.007	7
bin	0.0072	2
bin	0.0074	2
bin	0.0076	2
bin	0.0078	2
bin	0.008	2
bin	0.0082	3
bin	0.0084	1
bin	0.0086	0
bin	0.0088	2
bin	0.009	3
bin	0.0092	0
bin	0.0094	2
bin	0.0096	1
bin	0.0098	0
bin	0.01	0
bin	0.0102	0
bin	0.0104	0
bin	0.0106	0
bin	0.0108	1
bin	0.011	1
bin	0.0112	0
bin	0.0114	0
bin	0.0116	1
bin	0.0118	0
bin	0.012	0
bin	0.0122	0
bin	0.0124	0
bin	0.0126	0
bin	0.0128	0
bin	0.013	1
bin	0.0132	0
bin	0.0134	1
bin	0.0136	0
statistic Network.tor[4] activity_time_of_a_rule_B
field count 75756
field mean 0.00017151807584209
field stddev 0.00027220910330385
field min 0
field max 0.005222343732
field sum 12.993523353493
field sqrsum 0.0078419026540326
bin	-inf	0
bin	0	37127
bin	8e-005	13258
bin	0.00016	8273
bin	0.00024	5222
bin	0.00032	3320
bin	0.0004	2186
bin	0.00048	1565
bin	0.00056	1124
bin	0.00064	760
bin	0.00072	561
bin	0.0008	428
bin	0.00088	357
bin	0.00096	263
bin	0.00104	192
bin	0.00112	173
bin	0.0012	149
bin	0.00128	110
bin	0.00136	89
bin	0.00144	93
bin	0.00152	59
bin	0.0016	56
bin	0.00168	52
bin	0.00176	53
bin	0.00184	39
bin	0.00192	34
bin	0.002	27
bin	0.00208	19
bin	0.00216	14
bin	0.00224	20
bin	0.00232	12
bin	0.0024	23
bin	0.00248	10
bin	0.00256	16
bin	0.00264	9
bin	0.00272	3
bin	0.0028	6
bin	0.00288	8
bin	0.00296	5
bin	0.00304	2
bin	0.00312	7
bin	0.0032	5
bin	0.00328	4
bin	0.00336	3
bin	0.00344	3
bin	0.00352	1
bin	0.0036	1
bin	0.00368	4
bin	0.00376	0
bin	0.00384	1
bin	0.00392	3
bin	0.004	0
bin	0.00408	2
bin	0.00416	0
bin	0.00424	1
bin	0.00432	1
bin	0.0044	0
bin	0.00448	0
bin	0.00456	0
bin	0.00464	0
bin	0.00472	0
bin	0.0048	0
bin	0.00488	0
bin	0.00496	1
bin	0.00504	1
bin	0.00512	0
bin	0.0052	1
bin	0.00528	0
scalar Network.tor[4] "cache_content_by_app: " 0.41056910569106
scalar Network.tor[5] "Bandwidth: " 311961600000
statistic Network.tor[5] "flow count"
field count 93
field mean 811.18279569892
field stddev 12.298768263316
field min 780
field max 843
field sum 75440
field sqrsum 61209546
bin	-inf	0
bin	764	0
bin	766	0
bin	768	0
bin	770	0
bin	772	0
bin	774	0
bin	776	0
bin	778	0
bin	780	1
bin	782	0
bin	784	2
bin	786	1
bin	788	2
bin	790	0
bin	792	2
bin	794	2
bin	796	2
bin	798	3
bin	800	8
bin	802	2
bin	804	3
bin	806	2
bin	808	8
bin	810	9
bin	812	8
bin	814	3
bin	816	6
bin	818	5
bin	820	3
bin	822	6
bin	824	5
bin	826	4
bin	828	1
bin	830	1
bin	832	1
bin	834	2
bin	836	0
bin	838	0
bin	840	0
bin	842	1
bin	844	0
bin	846	0
bin	848	0
bin	850	0
bin	852	0
bin	854	0
bin	856	0
bin	858	0
bin	860	0
statistic Network.tor[5] cache_occupancy
field count 93
field mean 300
field stddev 0
field min 300
field max 300
field sum 27900
field sqrsum 8370000
bin	-inf	0
bin	299	0
bin	300	93
bin	301	0
statistic Network.tor[5] activity_time_of_a_rule_A
field count 25019
field mean 0.00044543810804992
field stddev 0.00068233411248662
field min 0
field max 0.013054592173
field sum 11.144416025301
field sqrsum 0.016612024053343
bin	-inf	0
bin	0	14254
bin	0.0003	5210
bin	0.0006	2383
bin	0.0009	1206
bin	0.0012	671
bin	0.0015	363
bin	0.0018	232
bin	0.0021	202
bin	0.0024	111
bin	0.0027	78
bin	0.003	52
bin	0.0033	42
bin	0.0036	34
bin	0.0039	35
bin	0.0042	33
bin	0.0045	19
bin	0.0048	16
bin	0.0051	10
bin	0.0054	14
bin	0.0057	10
bin	0.006	11
bin	0.0063	3
bin	0.0066	8
bin	0.0069	2
bin	0.0072	2
bin	0.0075	1
bin	0.0078	3
bin	0.0081	4
bin	0.0084	1
bin	0.0087	1
bin	0.009	2
bin	0.0093	1
bin	0.0096	1
bin	0.0099	0
bin	0.0102	1
bin	0.0105	0
bin	0.0108	0
bin	0.0111	0
bin	0.0114	0
bin	0.0117	0
bin	0.012	0
bin	0.0123	1
bin	0.0126	0
bin	0.0129	2
bin	0.0132	0
statistic Network.tor[5] activity_time_of_a_rule_B
field count 82548
field mean 0.00015100951321718
field stddev 0.00024255527868193
field min 0
field max 0.004202737881
field sum 12.465533297052
field sqrsum 0.0067389069845101
bin	-inf	0
bin	0	43025
bin	8e-005	14673
bin	0.00016	8763
bin	0.00024	5191
bin	0.00032	3294
bin	0.0004	2056
bin	0.00048	1439
bin	0.00056	964
bin	0.00064	707
bin	0.00072	492
bin	0.0008	380
bin	0.00088	275
bin	0.00096	247
bin	0.00104	172
bin	0.00112	145
bin	0.0012	115
bin	0.00128	86
bin	0.00136	73
bin	0.00144	66
bin	0.00152	58
bin	0.0016	39
bin	0.00168	26
bin	0.00176	27
bin	0.00184	26
bin	0.00192	26
bin	0.002	27
bin	0.00208	18
bin	0.00216	21
bin	0.00224	14
bin	0.00232	18
bin	0.0024	6
bin	0.00248	8
bin	0.00256	10
bin	0.00264	8
bin	0.00272	4
bin	0.0028	8
bin	0.00288	6
bin	0.00296	5
bin	0.00304	4
bin	0.00312	3
bin	0.0032	5
bin	0.00328	0
bin	0.00336	2
bin	0.00344	3
bin	0.00352	4
bin	0.0036	3
bin	0.00368	0
bin	0.00376	2
bin	0.00384	1
bin	0.00392	0
bin	0.004	1
bin	0.00408	1
bin	0.00416	1
bin	0.00424	0
scalar Network.tor[5] "cache_content_by_app: " 0.43153526970954
scalar Network.tor[6] "Bandwidth: " 335383600000
statistic Network.tor[6] "flow count"
field count 93
field mean 802.32258064516
field stddev 21.015605635441
field min 762
field max 850
field sum 74616
field sqrsum 59906734
bin	-inf	0
bin	740	0
bin	742	0
bin	744	0
bin	746	0
bin	748	0
bin	750	0
bin	752	0
bin	754	0
bin	756	0
bin	758	0
bin	760	0
bin	762	1
bin	764	1
bin	766	0
bin	768	1
bin	770	1
bin	772	1
bin	774	1
bin	776	3
bin	778	5
bin	780	1
bin	782	3
bin	784	2
bin	786	3
bin	788	6
bin	790	7
bin	792	1
bin	794	3
bin	796	0
bin	798	4
bin	800	2
bin	802	5
bin	804	6
bin	806	5
bin	808	3
bin	810	3
bin	812	2
bin	814	1
bin	816	0
bin	818	4
bin	820	1
bin	822	2
bin	824	0
bin	826	0
bin	828	0
bin	830	3
bin	832	1
bin	834	1
bin	836	3
bin	838	1
bin	840	1
bin	842	1
bin	844	1
bin	846	0
bin	848	2
bin	850	1
bin	852	0
bin	854	0
bin	856	0
bin	858	0
bin	860	0
bin	862	0
bin	864	0
bin	866	0
bin	868	0
bin	870	0
bin	872	0
statistic Network.tor[6] cache_occupancy
field count 93
field mean 300
field stddev 0
field min 300
field max 300
field sum 27900
field sqrsum 8370000
bin	-inf	0
bin	299	0
bin	300	93
bin	301	0
statistic Network.tor[6] activity_time_of_a_rule_A
field count 31993
field mean 0.00039035751115662
field stddev 0.00061025553804338
field min 0
field max 0.015574757035
field sum 12.488707854434
field sqrsum 0.016789259915849
bin	-inf	0
bin	0	15582
bin	0.0002	6758
bin	0.0004	3654
bin	0.0006	2042
bin	0.0008	1233
bin	0.001	797
bin	0.0012	504
bin	0.0014	316
bin	0.0016	240
bin	0.0018	161
bin	0.002	132
bin	0.0022	112
bin	0.0024	72
bin	0.0026	56
bin	0.0028	44
bin	0.003	31
bin	0.0032	37
bin	0.0034	30
bin	0.0036	24
bin	0.0038	23
bin	0.004	19
bin	0.0042	9
bin	0.0044	20
bin	0.0046	7
bin	0.0048	12
bin	0.005	5
bin	0.0052	15
bin	0.0054	6
bin	0.0056	9
bin	0.0058	4
bin	0.006	3
bin	0.0062	4
bin	0.0064	0
bin	0.0066	4
bin	0.0068	1
bin	0.007	0
bin	0.0072	4
bin	0.0074	2
bin	0.0076	2
bin	0.0078	0
bin	0.008	1
bin	0.0082	4
bin	0.0084	0
bin	0.0086	1
bin	0.0088	3
bin	0.009	2
bin	0.0092	0
bin	0.0094	0
bin	0.0096	1
bin	0.0098	0
bin	0.01	1
bin	0.0102	0
bin	0.0104	1
bin	0.0106	0
bin	0.0108	2
bin	0.011	1
bin	0.0112	0
bin	0.0114	1
bin	0.0116	0
bin	0.0118	0
bin	0.012	0
bin	0.0122	0
bin	0.0124	0
bin	0.0126	0
bin	0.0128	0
bin	0.013	0
bin	0.0132	0
bin	0.0134	0
bin	0.0136	0
bin	0.0138	0
bin	0.014	0
bin	0.0142	0
bin	0.0144	0
bin	0.0146	0
bin	0.0148	0
bin	0.015	0
bin	0.0152	0
bin	0.0154	1
bin	0.0156	0
statistic Network.tor[6] activity_time_of_a_rule_B
field count 82028
field mean 0.00013688754734325
field stddev 0.00022461879750972
field min 0
field max 0.004360290465
field sum 11.228611733472
field sqrsum 0.0056756149115443
bin	-inf	0
bin	0	45112
bin	8e-005	14523
bin	0.00016	8111
bin	0.00024	4923
bin	0.00032	2909
bin	0.0004	1839
bin	0.00048	1237
bin	0.00056	867
bin	0.00064	588
bin	0.00072	433
bin	0.0008	277
bin	0.00088	193
bin	0.00096	166
bin	0.00104	139
bin	0.00112	99
bin	0.0012	96
bin	0.00128	70
bin	0.00136	65
bin	0.00144	45
bin	0.00152	42
bin	0.0016	49
bin	0.00168	29
bin	0.00176	22
bin	0.00184	32
bin	0.00192	21
bin	0.002	25
bin	0.00208	11
bin	0.00216	15
bin	0.00224	10
bin	0.00232	8
bin	0.0024	9
bin	0.00248	13
bin	0.00256	8
bin	0.00264	6
bin	0.00272	5
bin	0.0028	4
bin	0.00288	3
bin	0.00296	3
bin	0.00304	2
bin	0.00312	1
bin	0.0032	5
bin	0.00328	1
bin	0.00336	2
bin	0.00344	1
bin	0.00352	2
bin	0.0036	0
bin	0.00368	2
bin	0.00376	1
bin	0.00384	1
bin	0.00392	0
bin	0.004	1
bin	0.00408	0
bin	0.00416	0
bin	0.00424	1
bin	0.00432	1
bin	0.0044	0
scalar Network.tor[6] "cache_content_by_app: " 0.45967741935484
scalar Network.tor[7] "Bandwidth: " 319631800000
statistic Network.tor[7] "flow count"
field count 93
field mean 802.45161290323
field stddev 15.958176403004
field min 770
field max 843
field sum 74628
field sqrsum 59908788
bin	-inf	0
bin	750	0
bin	752	0
bin	754	0
bin	756	0
bin	758	0
bin	760	0
bin	762	0
bin	764	0
bin	766	0
bin	768	0
bin	770	2
bin	772	1
bin	774	0
bin	776	2
bin	778	1
bin	780	2
bin	782	2
bin	784	1
bin	786	3
bin	788	2
bin	790	3
bin	792	10
bin	794	5
bin	796	8
bin	798	3
bin	800	5
bin	802	4
bin	804	2
bin	806	6
bin	808	4
bin	810	1
bin	812	4
bin	814	0
bin	816	2
bin	818	1
bin	820	5
bin	822	6
bin	824	0
bin	826	3
bin	828	0
bin	830	1
bin	832	1
bin	834	0
bin	836	1
bin	838	0
bin	840	1
bin	842	1
bin	844	0
bin	846	0
bin	848	0
bin	850	0
bin	852	0
bin	854	0
bin	856	0
bin	858	0
bin	860	0
bin	862	0
statistic Network.tor[7] cache_occupancy
field count 93
field mean 300
field stddev 0
field min 300
field max 300
field sum 27900
field sqrsum 8370000
bin	-inf	0
bin	299	0
bin	300	93
bin	301	0
statistic Network.tor[7] activity_time_of_a_rule_A
field count 27810
field mean 0.00042715630651719
field stddev 0.00071488957012801
field min 0
field max 0.020300770191
field sum 11.879216884243
field sqrsum 0.01928654732235
bin	-inf	0
bin	0	18851
bin	0.0004	5132
bin	0.0008	1858
bin	0.0012	811
bin	0.0016	393
bin	0.002	230
bin	0.0024	140
bin	0.0028	110
bin	0.0032	60
bin	0.0036	46
bin	0.004	42
bin	0.0044	23
bin	0.0048	19
bin	0.0052	13
bin	0.0056	11
bin	0.006	13
bin	0.0064	7
bin	0.0068	11
bin	0.0072	8
bin	0.0076	8
bin	0.008	2
bin	0.0084	3
bin	0.0088	5
bin	0.0092	2
bin	0.0096	1
bin	0.01	1
bin	0.0104	0
bin	0.0108	1
bin	0.0112	0
bin	0.0116	1
bin	0.012	2
bin	0.0124	0
bin	0.0128	1
bin	0.0132	1
bin	0.0136	1
bin	0.014	0
bin	0.0144	1
bin	0.0148	0
bin	0.0152	0
bin	0.0156	0
bin	0.016	0
bin	0.0164	0
bin	0.0168	0
bin	0.0172	0
bin	0.0176	0
bin	0.018	0
bin	0.0184	0
bin	0.0188	0
bin	0.0192	0
bin	0.0196	0
bin	0.02	2
bin	0.0204	0
statistic Network.tor[7] activity_time_of_a_rule_B
field count 81136
field mean 0.00014512935190856
field stddev 0.00023784876063303
field min 0
field max 0.004987707234
field sum 11.775215096453
field sqrsum 0.0062989012276865
bin	-inf	0
bin	0	43206
bin	8e-005	14473
bin	0.00016	8464
bin	0.00024	5022
bin	0.00032	3032
bin	0.0004	1827
bin	0.00048	1348
bin	0.00056	904
bin	0.00064	669
bin	0.00072	436
bin	0.0008	357
bin	0.00088	229
bin	0.00096	187
bin	0.00104	167
bin	0.00112	141
bin	0.0012	112
bin	0.00128	87
bin	0.00136	62
bin	0.00144	64
bin	0.00152	42
bin	0.0016	35
bin	0.00168	27
bin	0.00176	30
bin	0.00184	29
bin	0.00192	30
bin	0.002	19
bin	0.00208	13
bin	0.00216	19
bin	0.00224	16
bin	0.00232	11
bin	0.0024	6
bin	0.00248	5
bin	0.00256	7
bin	0.00264	5
bin	0.00272	6
bin	0.0028	7
bin	0.00288	4
bin	0.00296	2
bin	0.00304	3
bin	0.00312	6
bin	0.0032	4
bin	0.00328	3
bin	0.00336	5
bin	0.00344	1
bin	0.00352	0
bin	0.0036	1
bin	0.00368	3
bin	0.00376	1
bin	0.00384	1
bin	0.00392	1
bin	0.004	0
bin	0.00408	1
bin	0.00416	1
bin	0.00424	0
bin	0.00432	0
bin	0.0044	0
bin	0.00448	0
bin	0.00456	2
bin	0.00464	1
bin	0.00472	0
bin	0.0048	1
bin	0.00488	0
bin	0.00496	1
bin	0.00504	0
scalar Network.tor[7] "cache_content_by_app: " 0.42276422764228
scalar Network.tor[8] "Bandwidth: " 342584200000
statistic Network.tor[8] "flow count"
field count 93
field mean 832.58064516129
field stddev 23.417441744139
field min 789
field max 888
field sum 77430
field sqrsum 64517170
bin	-inf	0
bin	764	0
bin	766	0
bin	768	0
bin	770	0
bin	772	0
bin	774	0
bin	776	0
bin	778	0
bin	780	0
bin	782	0
bin	784	0
bin	786	0
bin	788	2
bin	790	1
bin	792	2
bin	794	1
bin	796	1
bin	798	3
bin	800	3
bin	802	5
bin	804	1
bin	806	1
bin	808	1
bin	810	2
bin	812	0
bin	814	1
bin	816	3
bin	818	1
bin	820	1
bin	822	2
bin	824	2
bin	826	0
bin	828	2
bin	830	2
bin	832	2
bin	834	4
bin	836	6
bin	838	4
bin	840	4
bin	842	1
bin	844	3
bin	846	6
bin	848	2
bin	850	3
bin	852	5
bin	854	3
bin	856	3
bin	858	0
bin	860	3
bin	862	1
bin	864	1
bin	866	1
bin	868	0
bin	870	0
bin	872	2
bin	874	0
bin	876	0
bin	878	0
bin	880	1
bin	882	0
bin	884	0
bin	886	0
bin	888	1
bin	890	0
bin	892	0
bin	894	0
bin	896	0
bin	898	0
bin	900	0
bin	902	0
bin	904	0
bin	906	0
bin	908	0
bin	910	0
bin	912	0
bin	914	0
statistic Network.tor[8] cache_occupancy
field count 93
field mean 300
field stddev 0
field min 300
field max 300
field sum 27900
field sqrsum 8370000
bin	-inf	0
bin	299	0
bin	300	93
bin	301	0
statistic Network.tor[8] activity_time_of_a_rule_A
field count 32483
field mean 0.00037456001854909
field stddev 0.00063904195566233
field min 0
field max 0.022605339309
field sum 12.16683308253
field sqrsum 0.01782203366754
bin	-inf	0
bin	0	21004
bin	0.00032	6377
bin	0.00064	2499
bin	0.00096	1009
bin	0.00128	554
bin	0.0016	313
bin	0.00192	194
bin	0.00224	125
bin	0.00256	95
bin	0.00288	50
bin	0.0032	48
bin	0.00352	43
bin	0.00384	34
bin	0.00416	19
bin	0.00448	20
bin	0.0048	12
bin	0.00512	20
bin	0.00544	11
bin	0.00576	4
bin	0.00608	3
bin	0.0064	5
bin	0.00672	5
bin	0.00704	3
bin	0.00736	6
bin	0.00768	6
bin	0.008	2
bin	0.00832	5
bin	0.00864	5
bin	0.00896	1
bin	0.00928	0
bin	0.0096	2
bin	0.00992	0
bin	0.01024	0
bin	0.01056	1
bin	0.01088	2
bin	0.0112	1
bin	0.01152	0
bin	0.01184	1
bin	0.01216	0
bin	0.01248	0
bin	0.0128	0
bin	0.01312	0
bin	0.01344	0
bin	0.01376	0
bin	0.01408	0
bin	0.0144	0
bin	0.01472	0
bin	0.01504	0
bin	0.01536	0
bin	0.01568	1
bin	0.016	0
bin	0.01632	0
bin	0.01664	0
bin	0.01696	0
bin	0.01728	0
bin	0.0176	1
bin	0.01792	0
bin	0.01824	0
bin	0.01856	0
bin	0.01888	1
bin	0.0192	0
bin	0.01952	0
bin	0.01984	0
bin	0.02016	0
bin	0.02048	0
bin	0.0208	0
bin	0.02112	0
bin	0.02144	0
bin	0.02176	0
bin	0.02208	0
bin	0.0224	1
bin	0.02272	0
statistic Network.tor[8] activity_time_of_a_rule_B
field count 85793
field mean 0.00013259749582944
field stddev 0.00021889346916743
field min 0
field max 0.005634262897
field sum 11.375936959695
field sqrsum 0.0056190887411907
bin	-inf	0
bin	0	47593
bin	8e-005	15405
bin	0.00016	8544
bin	0.00024	5006
bin	0.00032	2896
bin	0.0004	1887
bin	0.00048	1193
bin	0.00056	818
bin	0.00064	541
bin	0.00072	413
bin	0.0008	285
bin	0.00088	209
bin	0.00096	189
bin	0.00104	134
bin	0.00112	105
bin	0.0012	90
bin	0.00128	67
bin	0.00136	62
bin	0.00144	43
bin	0.00152	33
bin	0.0016	41
bin	0.00168	25
bin	0.00176	24
bin	0.00184	25
bin	0.00192	20
bin	0.002	24
bin	0.00208	16
bin	0.00216	16
bin	0.00224	12
bin	0.00232	13
bin	0.0024	7
bin	0.00248	5
bin	0.00256	7
bin	0.00264	3
bin	0.00272	8
bin	0.0028	0
bin	0.00288	2
bin	0.00296	9
bin	0.00304	5
bin	0.00312	1
bin	0.0032	3
bin	0.00328	3
bin	0.00336	1
bin	0.00344	4
bin	0.00352	1
bin	0.0036	2
bin	0.00368	1
bin	0.00376	0
bin	0.00384	1
bin	0.00392	0
bin	0.004	0
bin	0.00408	0
bin	0.00416	0
bin	0.00424	0
bin	0.00432	0
bin	0.0044	0
bin	0.00448	0
bin	0.00456	0
bin	0.00464	0
bin	0.00472	0
bin	0.0048	0
bin	0.00488	0
bin	0.00496	0
bin	0.00504	0
bin	0.00512	0
bin	0.0052	0
bin	0.00528	0
bin	0.00536	0
bin	0.00544	0
bin	0.00552	0
bin	0.0056	1
bin	0.00568	0
scalar Network.tor[8] "cache_content_by_app: " 0.43621399176955
scalar Network.tor[9] "Bandwidth: " 303349700000
statistic Network.tor[9] "flow count"
field count 93
field mean 781.48387096774
field stddev 22.406624070664
field min 740
field max 826
field sum 72678
field sqrsum 56842874
bin	-inf	0
bin	718	0
bin	720	0
bin	722	0
bin	724	0
bin	726	0
bin	728	0
bin	730	0
bin	732	0
bin	734	0
bin	736	0
bin	738	0
bin	740	1
bin	742	0
bin	744	2
bin	746	2
bin	748	2
bin	750	1
bin	752	0
bin	754	3
bin	756	4
bin	758	2
bin	760	1
bin	762	1
bin	764	3
bin	766	1
bin	768	6
bin	770	4
bin	772	6
bin	774	6
bin	776	7
bin	778	1
bin	780	3
bin	782	0
bin	784	0
bin	786	2
bin	788	3
bin	790	3
bin	792	2
bin	794	2
bin	796	3
bin	798	0
bin	800	0
bin	802	0
bin	804	2
bin	806	3
bin	808	2
bin	810	1
bin	812	1
bin	814	3
bin	816	2
bin	818	4
bin	820	1
bin	822	2
bin	824	0
bin	826	1
bin	828	0
bin	830	0
bin	832	0
bin	834	0
bin	836	0
bin	838	0
bin	840	0
bin	842	0
bin	844	0
bin	846	0
bin	848	0
statistic Network.tor[9] cache_occupancy
field count 93
field mean 300
field stddev 0
field min 300
field max 300
field sum 27900
field sqrsum 8370000
bin	-inf	0
bin	299	0
bin	300	93
bin	301	0
statistic Network.tor[9] activity_time_of_a_rule_A
field count 23073
field mean 0.00045655364282373
field stddev 0.0007569330997907
field min 0
field max 0.02167136351
field sum 10.534062200872
field sqrsum 0.018028414211056
bin	-inf	0
bin	0	13363
bin	0.00032	4802
bin	0.00064	2214
bin	0.00096	1118
bin	0.00128	581
bin	0.0016	291
bin	0.00192	175
bin	0.00224	136
bin	0.00256	72
bin	0.00288	74
bin	0.0032	60
bin	0.00352	32
bin	0.00384	17
bin	0.00416	14
bin	0.00448	15
bin	0.0048	11
bin	0.00512	9
bin	0.00544	14
bin	0.00576	6
bin	0.00608	6
bin	0.0064	6
bin	0.00672	11
bin	0.00704	5
bin	0.00736	3
bin	0.00768	5
bin	0.008	2
bin	0.00832	2
bin	0.00864	3
bin	0.00896	1
bin	0.00928	6
bin	0.0096	7
bin	0.00992	1
bin	0.01024	2
bin	0.01056	0
bin	0.01088	1
bin	0.0112	0
bin	0.01152	1
bin	0.01184	0
bin	0.01216	1
bin	0.01248	0
bin	0.0128	0
bin	0.01312	0
bin	0.01344	0
bin	0.01376	1
bin	0.01408	1
bin	0.0144	0
bin	0.01472	0
bin	0.01504	2
bin	0.01536	0
bin	0.01568	0
bin	0.016	0
bin	0.01632	0
bin	0.01664	0
bin	0.01696	0
bin	0.01728	0
bin	0.0176	0
bin	0.01792	0
bin	0.01824	0
bin	0.01856	0
bin	0.01888	0
bin	0.0192	0
bin	0.01952	1
bin	0.01984	0
bin	0.02016	0
bin	0.02048	0
bin	0.0208	0
bin	0.02112	0
bin	0.02144	1
bin	0.02176	0
statistic Network.tor[9] activity_time_of_a_rule_B
field count 79268
field mean 0.00016546157311769
field stddev 0.00026597252087604
field min 0
field max 0.005107799096
field sum 13.115807977893
field sqrsum 0.0077776193367197
bin	-inf	0
bin	0	39382
bin	8e-005	14279
bin	0.00016	8497
bin	0.00024	5411
bin	0.00032	3307
bin	0.0004	2174
bin	0.00048	1524
bin	0.00056	1113
bin	0.00064	778
bin	0.00072	561
bin	0.0008	438
bin	0.00088	317
bin	0.00096	261
bin	0.00104	206
bin	0.00112	126
bin	0.0012	135
bin	0.00128	106
bin	0.00136	94
bin	0.00144	66
bin	0.00152	62
bin	0.0016	48
bin	0.00168	50
bin	0.00176	41
bin	0.00184	35
bin	0.00192	34
bin	0.002	19
bin	0.00208	21
bin	0.00216	12
bin	0.00224	13
bin	0.00232	17
bin	0.0024	17
bin	0.00248	16
bin	0.00256	13
bin	0.00264	11
bin	0.00272	10
bin	0.0028	10
bin	0.00288	8
bin	0.00296	10
bin	0.00304	6
bin	0.00312	5
bin	0.0032	4
bin	0.00328	5
bin	0.00336	5
bin	0.00344	0
bin	0.00352	5
bin	0.0036	1
bin	0.00368	3
bin	0.00376	2
bin	0.00384	3
bin	0.00392	0
bin	0.004	1
bin	0.00408	1
bin	0.00416	0
bin	0.00424	0
bin	0.00432	2
bin	0.0044	0
bin	0.00448	0
bin	0.00456	1
bin	0.00464	0
bin	0.00472	1
bin	0.0048	0
bin	0.00488	0
bin	0.00496	0
bin	0.00504	1
bin	0.00512	0
scalar Network.tor[9] "cache_content_by_app: " 0.43824701195219
scalar Network.agg[0] "Bandwidth: " 3736070700000
statistic Network.agg[0] "flow count"
field count 93
field mean 3862.623655914
field stddev 25.469467645406
field min 3795
field max 3951
field sum 359224
field sqrsum 1387606800
bin	-inf	0
bin	3755	0
bin	3760	0
bin	3765	0
bin	3770	0
bin	3775	0
bin	3780	0
bin	3785	0
bin	3790	0
bin	3795	1
bin	3800	0
bin	3805	1
bin	3810	1
bin	3815	0
bin	3820	1
bin	3825	3
bin	3830	3
bin	3835	8
bin	3840	6
bin	3845	7
bin	3850	6
bin	3855	6
bin	3860	6
bin	3865	6
bin	3870	5
bin	3875	8
bin	3880	6
bin	3885	8
bin	3890	3
bin	3895	4
bin	3900	2
bin	3905	0
bin	3910	1
bin	3915	0
bin	3920	0
bin	3925	0
bin	3930	0
bin	3935	0
bin	3940	0
bin	3945	0
bin	3950	1
bin	3955	0
bin	3960	0
bin	3965	0
bin	3970	0
bin	3975	0
bin	3980	0
bin	3985	0
bin	3990	0
statistic Network.agg[0] cache_occupancy
field count 93
field mean 1500
field stddev 0
field min 1500
field max 1500
field sum 139500
field sqrsum 209250000
bin	-inf	0
bin	1499	0
bin	1500	93
bin	1501	0
statistic Network.agg[0] activity_time_of_a_rule_A
field count 780395
field mean 2.2741411807267e-005
field stddev 2.219073293305e-005
field min 0
field max 0.000244144065
field sum 17.747284067332
field sqrsum 0.00078788664223789
bin	-inf	0
bin	0	231207
bin	4e-006	41872
bin	8e-006	43632
bin	1.2e-005	45477
bin	1.6e-005	45299
bin	2e-005	45601
bin	2.4e-005	43947
bin	2.8e-005	42090
bin	3.2e-005	38466
bin	3.6e-005	35100
bin	4e-005	31139
bin	4.4e-005	27057
bin	4.8e-005	22770
bin	5.2e-005	19078
bin	5.6e-005	15459
bin	6e-005	12441
bin	6.4e-005	9646
bin	6.8e-005	7555
bin	7.2e-005	5773
bin	7.6e-005	4380
bin	8e-005	3179
bin	8.4e-005	2444
bin	8.8e-005	1750
bin	9.2e-005	1285
bin	9.6e-005	968
bin	0.0001	697
bin	0.000104	493
bin	0.000108	359
bin	0.000112	272
bin	0.000116	218
bin	0.00012	153
bin	0.000124	113
bin	0.000128	88
bin	0.000132	76
bin	0.000136	54
bin	0.00014	43
bin	0.000144	47
bin	0.000148	35
bin	0.000152	32
bin	0.000156	20
bin	0.00016	15
bin	0.000164	5
bin	0.000168	7
bin	0.000172	14
bin	0.000176	13
bin	0.00018	8
bin	0.000184	7
bin	0.000188	3
bin	0.000192	0
bin	0.000196	3
bin	0.0002	1
bin	0.000204	0
bin	0.000208	0
bin	0.000212	0
bin	0.000216	0
bin	0.00022	1
bin	0.000224	0
bin	0.000228	0
bin	0.000232	1
bin	0.000236	1
bin	0.00024	0
bin	0.000244	1
bin	0.000248	0
statistic Network.agg[0] activity_time_of_a_rule_B
field count 2074770
field mean 2.7259517627703e-005
field stddev 3.5359743157381e-005
field min 0
field max 0.000555395255
field sum 56.557229388429
field sqrsum 0.0041358301995697
bin	-inf	0
bin	0	868092
bin	8e-006	196118
bin	1.6e-005	180968
bin	2.4e-005	156172
bin	3.2e-005	130387
bin	4e-005	108521
bin	4.8e-005	88335
bin	5.6e-005	71453
bin	6.4e-005	57051
bin	7.2e-005	45223
bin	8e-005	35818
bin	8.8e-005	28272
bin	9.6e-005	22440
bin	0.000104	17797
bin	0.000112	13796
bin	0.00012	11132
bin	0.000128	8689
bin	0.000136	6988
bin	0.000144	5503
bin	0.000152	4329
bin	0.00016	3529
bin	0.000168	2772
bin	0.000176	2196
bin	0.000184	1693
bin	0.000192	1453
bin	0.0002	1105
bin	0.000208	937
bin	0.000216	721
bin	0.000224	579
bin	0.000232	488
bin	0.00024	396
bin	0.000248	312
bin	0.000256	278
bin	0.000264	210
bin	0.000272	208
bin	0.00028	154
bin	0.000288	117
bin	0.000296	91
bin	0.000304	93
bin	0.000312	56
bin	0.00032	61
bin	0.000328	38
bin	0.000336	34
bin	0.000344	35
bin	0.000352	19
bin	0.00036	20
bin	0.000368	12
bin	0.000376	6
bin	0.000384	14
bin	0.000392	12
bin	0.0004	9
bin	0.000408	5
bin	0.000416	9
bin	0.000424	5
bin	0.000432	3
bin	0.00044	1
bin	0.000448	4
bin	0.000456	2
bin	0.000464	0
bin	0.000472	0
bin	0.00048	0
bin	0.000488	2
bin	0.000496	0
bin	0.000504	2
bin	0.000512	0
bin	0.00052	1
bin	0.000528	1
bin	0.000536	1
bin	0.000544	0
bin	0.000552	2
bin	0.00056	0
scalar Network.agg[0] "cache_content_by_app: " 0.26040816326531
statistic Network.dest "miss count"
field count 31461615
field mean 0.59434847829649
field stddev 0.78490822044641
field min 0
field max 2
field sum 18699163
field sqrsum 30496719
bin	-inf	0
bin	0	18661230
bin	1	6901607
bin	2	5898778
bin	3	0
statistic Network.dest "out of order"
field count 31461615
field mean 1.0991927146779
field stddev 10.028127867729
field min -17
field max 4638
field sum 34582378
field sqrsum 3201897952
bin	-inf	0
bin	-50	31454334
bin	50	1468
bin	150	1411
bin	250	1422
bin	350	1415
bin	450	492
bin	550	77
bin	650	71
bin	750	80
bin	850	77
bin	950	71
bin	1050	62
bin	1150	65
bin	1250	60
bin	1350	57
bin	1450	53
bin	1550	38
bin	1650	39
bin	1750	47
bin	1850	36
bin	1950	37
bin	2050	40
bin	2150	26
bin	2250	25
bin	2350	34
bin	2450	16
bin	2550	19
bin	2650	13
bin	2750	10
bin	2850	10
bin	2950	3
bin	3050	0
bin	3150	0
bin	3250	0
bin	3350	1
bin	3450	0
bin	3550	3
bin	3650	0
bin	3750	0
bin	3850	0
bin	3950	0
bin	4050	0
bin	4150	1
bin	4250	1
bin	4350	0
bin	4450	0
bin	4550	1
bin	4650	0
statistic Network.dest "bandwidth to destination"
field count 93
field mean 3145713306451.6
field stddev 38047341710.276
field min 3057375000000
field max 3226912500000
field sum 2.925513375e+014
field sqrsum 9.204158144134e+026
bin	-inf	0
bin	3010000000000	0
bin	3015000000000	0
bin	3020000000000	0
bin	3025000000000	0
bin	3030000000000	0
bin	3035000000000	0
bin	3040000000000	0
bin	3045000000000	0
bin	3050000000000	0
bin	3055000000000	1
bin	3060000000000	1
bin	3065000000000	0
bin	3070000000000	1
bin	3075000000000	0
bin	3080000000000	0
bin	3085000000000	1
bin	3090000000000	6
bin	3095000000000	1
bin	3100000000000	4
bin	3105000000000	5
bin	3110000000000	3
bin	3115000000000	2
bin	3120000000000	6
bin	3125000000000	1
bin	3130000000000	5
bin	3135000000000	6
bin	3140000000000	2
bin	3145000000000	4
bin	3150000000000	4
bin	3155000000000	6
bin	3160000000000	2
bin	3165000000000	7
bin	3170000000000	2
bin	3175000000000	3
bin	3180000000000	6
bin	3185000000000	4
bin	3190000000000	1
bin	3195000000000	2
bin	3200000000000	1
bin	3205000000000	1
bin	3210000000000	2
bin	3215000000000	1
bin	3220000000000	1
bin	3225000000000	1
bin	3230000000000	0
bin	3235000000000	0
bin	3240000000000	0
bin	3245000000000	0
bin	3250000000000	0
bin	3255000000000	0
bin	3260000000000	0
bin	3265000000000	0
bin	3270000000000	0
statistic Network.dest miss_count_by_apps
field count 31461615
field mean 0.8500909282629
field stddev 0.89984121292352
field min 0
field max 2.5
field sum 26745233.5
field sqrsum 48210796.25
bin	-inf	0
bin	-0.02	12002054
bin	0.01	0
bin	0.04	0
bin	0.07	0
bin	0.1	0
bin	0.13	0
bin	0.16	0
bin	0.19	0
bin	0.22	0
bin	0.25	0
bin	0.28	0
bin	0.31	0
bin	0.34	0
bin	0.37	0
bin	0.4	0
bin	0.43	0
bin	0.46	0
bin	0.49	6659176
bin	0.52	0
bin	0.55	0
bin	0.58	0
bin	0.61	0
bin	0.64	0
bin	0.67	0
bin	0.7	0
bin	0.73	0
bin	0.76	0
bin	0.79	0
bin	0.82	0
bin	0.85	0
bin	0.88	0
bin	0.91	0
bin	0.94	0
bin	0.97	0
bin	1	1726719
bin	1.03	0
bin	1.06	0
bin	1.09	0
bin	1.12	0
bin	1.15	0
bin	1.18	0
bin	1.21	0
bin	1.24	0
bin	1.27	0
bin	1.3	0
bin	1.33	0
bin	1.36	0
bin	1.39	0
bin	1.42	0
bin	1.45	0
bin	1.48	5174888
bin	1.51	0
bin	1.54	0
bin	1.57	0
bin	1.6	0
bin	1.63	0
bin	1.66	0
bin	1.69	0
bin	1.72	0
bin	1.75	0
bin	1.78	0
bin	1.81	0
bin	1.84	0
bin	1.87	0
bin	1.9	0
bin	1.93	0
bin	1.96	0
bin	1.99	1640701
bin	2.02	0
bin	2.05	0
bin	2.08	0
bin	2.11	0
bin	2.14	0
bin	2.17	0
bin	2.2	0
bin	2.23	0
bin	2.26	0
bin	2.29	0
bin	2.32	0
bin	2.35	0
bin	2.38	0
bin	2.41	0
bin	2.44	0
bin	2.47	0
bin	2.5	4258077
bin	2.53	0
bin	2.56	0
bin	2.59	0
bin	2.62	0
bin	2.65	0
scalar Network.dest "Simulation duration (in minutes). By chrono library: " 9.85

