version 2
run General-0-20230911-18:53:52-26692
attr configname General
attr datetime 20230911-18:53:52
attr experiment General
attr inifile omnetpp.ini
attr iterationvars "$endSim=3.12s, $hosts=15000, $SizeDist=i-hadoop, $p=0.5, $scale=1, $alg=PushCount, $diversityTh=2, $pAlg=0.5, $countTh=1, $packetIndexAgg=4, $packetIndexCosw=4, $NumOfToRs=10, $cacheToR=300, $cacheAgg=10*300*0.5, $ThInAgg=1, $thInCons=2.5e9, $rate=1600000000000, $S=PaperResult/PushCount p = 0.5 th in Agg = 1 countTh = 1 App A=(Hadoop 2.5e9 t 4) App B (avg(Hadoop) 2.5e9 d 4)/end time = 3.12s CToR = 300/"
attr iterationvarsf endSim=3.12s,hosts=15000,SizeDist=i-hadoop,p=0.5,scale=1,alg=PushCount,diversityTh=2,pAlg=0.5,countTh=1,packetIndexAgg=4,packetIndexCosw=4,NumOfToRs=10,cacheToR=300,cacheAgg=10#2a300#2a0.5,ThInAgg=1,thInCons=2.5e9,rate=1600000000000,S=PaperResult#2fPushCount_p_=_0.5_th_in_Agg_=_1_countTh_=_1_App_A=(Hadoop_2.5e9_t_4)_App_B_(avg(Hadoop)_2.5e9_d_4)#2fend_time_=_3.12s_CToR_=_300#2f-
attr measurement "$endSim=3.12s, $hosts=15000, $SizeDist=i-hadoop, $p=0.5, $scale=1, $alg=PushCount, $diversityTh=2, $pAlg=0.5, $countTh=1, $packetIndexAgg=4, $packetIndexCosw=4, $NumOfToRs=10, $cacheToR=300, $cacheAgg=10*300*0.5, $ThInAgg=1, $thInCons=2.5e9, $rate=1600000000000, $S=PaperResult/PushCount p = 0.5 th in Agg = 1 countTh = 1 App A=(Hadoop 2.5e9 t 4) App B (avg(Hadoop) 2.5e9 d 4)/end time = 3.12s CToR = 300/"
attr network Network
attr processid 26692
attr repetition 0
attr replication #0
attr resultdir results
attr runnumber 0
attr seedset 0
itervar NumOfToRs 10
itervar S "PaperResult/PushCount p = 0.5 th in Agg = 1 countTh = 1 App A=(Hadoop 2.5e9 t 4) App B (avg(Hadoop) 2.5e9 d 4)/end time = 3.12s CToR = 300/"
itervar SizeDist i-hadoop
itervar ThInAgg 1
itervar alg PushCount
itervar cacheAgg 10*300*0.5
itervar cacheToR 300
itervar countTh 1
itervar diversityTh 2
itervar endSim 3.12s
itervar hosts 15000
itervar p 0.5
itervar pAlg 0.5
itervar packetIndexAgg 4
itervar packetIndexCosw 4
itervar rate 1600000000000
itervar scale 1
itervar thInCons 2.5e9
param Network.estimate_rate_interval 0.5e-3
param Network.policy_size "\"10e6\""
param Network.rack[*].number_of_hosts 15000
param Network.size_distribution "\"size_distribution/i-hadoop.csv\""
param Network.prob_of_app_A 0.5
param Network.scale 1
param Network.algorithm "\"PushCount\""
param Network.diversity_th 2
param Network.p_in_algorithm 0.5
param Network.count_th 1
param Network.packet_index_for_decision_Agg 4
param Network.packet_index_for_decision_cosw 4
param Network.cache_size "\"2222\""
param Network.NumOfToRs 10
param Network.NumOfAggregation 1
param Network.tor[*].max_cache_size 300
param Network.agg[*].max_cache_size 10*300*0.5
param Network.push_threshold_in_aggregation 1
param Network.push_threshold_in_controller_switch 2.5e9
param Network.total_rate_in_tor "\"1600000000000\""
param Network.output_file "\"PaperResult/PushCount p = 0.5 th in Agg = 1 countTh = 1 App A=(Hadoop 2.5e9 t 4) App B (avg(Hadoop) 2.5e9 d 4)/end time = 3.12s CToR = 300/\""
param Network.run_elephant false
param Network.bandwidth_elephant_threshold "\"2.5e9\""
param Network.run_push true
param Network.record_traffic false
param Network.create_offline_traffic false
param Network.linedelay 0.2
param Network.tor[*].threshold 2
param Network.agg[*].threshold 2
param Network.tor[*].Type 1001
param Network.agg[*].Type 1002
param Network.rack[*].host[*].flow_appearance "\"\""
param Network.rack[*].host[*].flow_size "\"\""
param Network.propagation_time "\"\""
param Network.processing_time_on_data_packet_in_sw "\"\""
param Network.processing_time_on_data_packet_in_controller "\"\""
param Network.insertion_delay "\"\""
param Network.eviction_delay "\"\""
param Network.elephant_table_size "\"\""
param Network.flush_elephant_time "\"\""
param Network.check_for_elephant_time "\"\""
param Network.elephant_sample_rx "\"\""
param Network.already_requested_threshold "\"\""
param Network.cache_percentage "\"\""
param Network.eviction_sample_size "\"\""
param Network.inter_arrival_time_between_packets "\"\""
param Network.inter_arrival_time_between_flowlets "\"\""
param Network.inter_arrival_time_between_flows "\"\""
param Network.large_flow "\"\""
param Network.last_flow_appearance "\"0\""
param Network.rack[*].last_flow_appearance 0

scalar Network.controller "prob_of_app_A: " 0.5
scalar Network.tor[0] "max_cache_size: " 300
scalar Network.tor[0] "push threshold: " 0
scalar Network.tor[1] "max_cache_size: " 300
scalar Network.tor[1] "push threshold: " 0
scalar Network.tor[2] "max_cache_size: " 300
scalar Network.tor[2] "push threshold: " 0
scalar Network.tor[3] "max_cache_size: " 300
scalar Network.tor[3] "push threshold: " 0
scalar Network.tor[4] "max_cache_size: " 300
scalar Network.tor[4] "push threshold: " 0
scalar Network.tor[5] "max_cache_size: " 300
scalar Network.tor[5] "push threshold: " 0
scalar Network.tor[6] "max_cache_size: " 300
scalar Network.tor[6] "push threshold: " 0
scalar Network.tor[7] "max_cache_size: " 300
scalar Network.tor[7] "push threshold: " 0
scalar Network.tor[8] "max_cache_size: " 300
scalar Network.tor[8] "push threshold: " 0
scalar Network.tor[9] "max_cache_size: " 300
scalar Network.tor[9] "push threshold: " 0
scalar Network.agg[0] "max_cache_size: " 1500
scalar Network.agg[0] "push threshold: " 1
scalar Network.dest "run_elephant: " 0
scalar Network.dest "run_push: " 1
scalar Network.dest "cache_size: " 2222
scalar Network.dest "scale: " 1
scalar Network.dest "total_rate_in_tor: " 1600000000000
scalar Network.controller "INTERVAL: " 0.00128
scalar Network.controller "insertion_rate: " 71977400
statistic Network.controller Total_bandwidth_hist
field count 93
field mean 863999395161.29
field stddev 16077438515.641
field min 831103125000
field max 894740625000
field sum 80351943750000
field sqrsum 6.9447811330723e+025
bin	-inf	0
bin	814000000000	0
bin	816000000000	0
bin	818000000000	0
bin	820000000000	0
bin	822000000000	0
bin	824000000000	0
bin	826000000000	0
bin	828000000000	0
bin	830000000000	2
bin	832000000000	1
bin	834000000000	0
bin	836000000000	2
bin	838000000000	4
bin	840000000000	4
bin	842000000000	2
bin	844000000000	1
bin	846000000000	2
bin	848000000000	2
bin	850000000000	0
bin	852000000000	4
bin	854000000000	3
bin	856000000000	4
bin	858000000000	6
bin	860000000000	5
bin	862000000000	2
bin	864000000000	6
bin	866000000000	6
bin	868000000000	1
bin	870000000000	3
bin	872000000000	6
bin	874000000000	4
bin	876000000000	1
bin	878000000000	4
bin	880000000000	3
bin	882000000000	6
bin	884000000000	2
bin	886000000000	2
bin	888000000000	1
bin	890000000000	2
bin	892000000000	0
bin	894000000000	2
bin	896000000000	0
bin	898000000000	0
bin	900000000000	0
bin	902000000000	0
bin	904000000000	0
bin	906000000000	0
bin	908000000000	0
bin	910000000000	0
bin	912000000000	0
statistic Network.rack[0].hub "bandwidth hist"
field count 93
field mean 309438709677.42
field stddev 19455733597.32
field min 278943750000
field max 359250000000
field sum 28777800000000
field sqrsum 8.9397896517773e+024
bin	-inf	0
bin	258000000000	0
bin	260000000000	0
bin	262000000000	0
bin	264000000000	0
bin	266000000000	0
bin	268000000000	0
bin	270000000000	0
bin	272000000000	0
bin	274000000000	0
bin	276000000000	0
bin	278000000000	1
bin	280000000000	0
bin	282000000000	1
bin	284000000000	6
bin	286000000000	5
bin	288000000000	6
bin	290000000000	3
bin	292000000000	4
bin	294000000000	7
bin	296000000000	3
bin	298000000000	1
bin	300000000000	0
bin	302000000000	1
bin	304000000000	6
bin	306000000000	2
bin	308000000000	3
bin	310000000000	4
bin	312000000000	4
bin	314000000000	6
bin	316000000000	1
bin	318000000000	0
bin	320000000000	3
bin	322000000000	0
bin	324000000000	3
bin	326000000000	4
bin	328000000000	6
bin	330000000000	2
bin	332000000000	2
bin	334000000000	0
bin	336000000000	1
bin	338000000000	1
bin	340000000000	2
bin	342000000000	0
bin	344000000000	0
bin	346000000000	1
bin	348000000000	0
bin	350000000000	1
bin	352000000000	1
bin	354000000000	1
bin	356000000000	0
bin	358000000000	1
bin	360000000000	0
bin	362000000000	0
bin	364000000000	0
bin	366000000000	0
bin	368000000000	0
bin	370000000000	0
bin	372000000000	0
bin	374000000000	0
bin	376000000000	0
bin	378000000000	0
bin	380000000000	0
statistic Network.rack[1].hub "bandwidth hist"
field count 93
field mean 304716229838.71
field stddev 15833695625.923
field min 278306250000
field max 357515625000
field sum 28338609375000
field sqrsum 8.658299152002e+024
bin	-inf	0
bin	258000000000	0
bin	260000000000	0
bin	262000000000	0
bin	264000000000	0
bin	266000000000	0
bin	268000000000	0
bin	270000000000	0
bin	272000000000	0
bin	274000000000	0
bin	276000000000	0
bin	278000000000	1
bin	280000000000	3
bin	282000000000	2
bin	284000000000	3
bin	286000000000	4
bin	288000000000	2
bin	290000000000	4
bin	292000000000	6
bin	294000000000	4
bin	296000000000	6
bin	298000000000	4
bin	300000000000	7
bin	302000000000	5
bin	304000000000	6
bin	306000000000	2
bin	308000000000	5
bin	310000000000	3
bin	312000000000	5
bin	314000000000	2
bin	316000000000	5
bin	318000000000	1
bin	320000000000	1
bin	322000000000	1
bin	324000000000	1
bin	326000000000	1
bin	328000000000	1
bin	330000000000	1
bin	332000000000	2
bin	334000000000	0
bin	336000000000	1
bin	338000000000	0
bin	340000000000	2
bin	342000000000	0
bin	344000000000	0
bin	346000000000	1
bin	348000000000	0
bin	350000000000	0
bin	352000000000	0
bin	354000000000	0
bin	356000000000	1
bin	358000000000	0
bin	360000000000	0
bin	362000000000	0
bin	364000000000	0
bin	366000000000	0
bin	368000000000	0
bin	370000000000	0
bin	372000000000	0
bin	374000000000	0
bin	376000000000	0
bin	378000000000	0
statistic Network.rack[2].hub "bandwidth hist"
field count 93
field mean 316586794354.84
field stddev 14974315023.447
field min 289312500000
field max 349903125000
field sum 29442571875000
field sqrsum 9.341758617627e+024
bin	-inf	0
bin	274000000000	0
bin	276000000000	0
bin	278000000000	0
bin	280000000000	0
bin	282000000000	0
bin	284000000000	0
bin	286000000000	0
bin	288000000000	1
bin	290000000000	2
bin	292000000000	2
bin	294000000000	2
bin	296000000000	4
bin	298000000000	3
bin	300000000000	2
bin	302000000000	4
bin	304000000000	0
bin	306000000000	12
bin	308000000000	4
bin	310000000000	5
bin	312000000000	4
bin	314000000000	3
bin	316000000000	4
bin	318000000000	3
bin	320000000000	4
bin	322000000000	1
bin	324000000000	9
bin	326000000000	2
bin	328000000000	5
bin	330000000000	1
bin	332000000000	3
bin	334000000000	3
bin	336000000000	0
bin	338000000000	3
bin	340000000000	2
bin	342000000000	2
bin	344000000000	0
bin	346000000000	1
bin	348000000000	2
bin	350000000000	0
bin	352000000000	0
bin	354000000000	0
bin	356000000000	0
bin	358000000000	0
bin	360000000000	0
bin	362000000000	0
bin	364000000000	0
bin	366000000000	0
statistic Network.rack[3].hub "bandwidth hist"
field count 93
field mean 321860383064.52
field stddev 11954581922.801
field min 301246875000
field max 351487500000
field sum 29933015625000
field sqrsum 9.6473997820019e+024
bin	-inf	0
bin	288000000000	0
bin	289000000000	0
bin	290000000000	0
bin	291000000000	0
bin	292000000000	0
bin	293000000000	0
bin	294000000000	0
bin	295000000000	0
bin	296000000000	0
bin	297000000000	0
bin	298000000000	0
bin	299000000000	0
bin	300000000000	0
bin	301000000000	2
bin	302000000000	1
bin	303000000000	2
bin	304000000000	1
bin	305000000000	2
bin	306000000000	1
bin	307000000000	2
bin	308000000000	2
bin	309000000000	3
bin	310000000000	2
bin	311000000000	3
bin	312000000000	2
bin	313000000000	4
bin	314000000000	2
bin	315000000000	1
bin	316000000000	2
bin	317000000000	3
bin	318000000000	2
bin	319000000000	4
bin	320000000000	4
bin	321000000000	4
bin	322000000000	6
bin	323000000000	4
bin	324000000000	7
bin	325000000000	1
bin	326000000000	1
bin	327000000000	1
bin	328000000000	2
bin	329000000000	3
bin	330000000000	2
bin	331000000000	1
bin	332000000000	0
bin	333000000000	2
bin	334000000000	1
bin	335000000000	0
bin	336000000000	1
bin	337000000000	0
bin	338000000000	0
bin	339000000000	1
bin	340000000000	2
bin	341000000000	0
bin	342000000000	2
bin	343000000000	0
bin	344000000000	2
bin	345000000000	1
bin	346000000000	1
bin	347000000000	0
bin	348000000000	2
bin	349000000000	0
bin	350000000000	0
bin	351000000000	1
bin	352000000000	0
bin	353000000000	0
bin	354000000000	0
bin	355000000000	0
bin	356000000000	0
bin	357000000000	0
bin	358000000000	0
bin	359000000000	0
bin	360000000000	0
bin	361000000000	0
bin	362000000000	0
bin	363000000000	0
bin	364000000000	0
bin	365000000000	0
statistic Network.rack[4].hub "bandwidth hist"
field count 93
field mean 319083266129.03
field stddev 14853116535.986
field min 293493750000
field max 356090625000
field sum 29674743750000
field sqrsum 9.4890107438086e+024
bin	-inf	0
bin	276000000000	0
bin	278000000000	0
bin	280000000000	0
bin	282000000000	0
bin	284000000000	0
bin	286000000000	0
bin	288000000000	0
bin	290000000000	0
bin	292000000000	1
bin	294000000000	4
bin	296000000000	1
bin	298000000000	3
bin	300000000000	3
bin	302000000000	4
bin	304000000000	3
bin	306000000000	7
bin	308000000000	2
bin	310000000000	8
bin	312000000000	2
bin	314000000000	6
bin	316000000000	4
bin	318000000000	3
bin	320000000000	4
bin	322000000000	6
bin	324000000000	0
bin	326000000000	3
bin	328000000000	4
bin	330000000000	3
bin	332000000000	6
bin	334000000000	2
bin	336000000000	4
bin	338000000000	2
bin	340000000000	3
bin	342000000000	1
bin	344000000000	0
bin	346000000000	1
bin	348000000000	0
bin	350000000000	1
bin	352000000000	0
bin	354000000000	1
bin	356000000000	1
bin	358000000000	0
bin	360000000000	0
bin	362000000000	0
bin	364000000000	0
bin	366000000000	0
bin	368000000000	0
bin	370000000000	0
bin	372000000000	0
statistic Network.rack[5].hub "bandwidth hist"
field count 93
field mean 324793044354.84
field stddev 17281729585.448
field min 295931250000
field max 400621875000
field sum 30205753125000
field sqrsum 9.8380950668262e+024
bin	-inf	0
bin	276000000000	0
bin	278000000000	0
bin	280000000000	0
bin	282000000000	0
bin	284000000000	0
bin	286000000000	0
bin	288000000000	0
bin	290000000000	0
bin	292000000000	0
bin	294000000000	1
bin	296000000000	1
bin	298000000000	3
bin	300000000000	1
bin	302000000000	3
bin	304000000000	1
bin	306000000000	4
bin	308000000000	2
bin	310000000000	1
bin	312000000000	7
bin	314000000000	4
bin	316000000000	5
bin	318000000000	2
bin	320000000000	6
bin	322000000000	6
bin	324000000000	11
bin	326000000000	4
bin	328000000000	5
bin	330000000000	3
bin	332000000000	5
bin	334000000000	3
bin	336000000000	3
bin	338000000000	1
bin	340000000000	1
bin	342000000000	0
bin	344000000000	0
bin	346000000000	1
bin	348000000000	2
bin	350000000000	0
bin	352000000000	1
bin	354000000000	0
bin	356000000000	0
bin	358000000000	0
bin	360000000000	1
bin	362000000000	1
bin	364000000000	2
bin	366000000000	0
bin	368000000000	1
bin	370000000000	0
bin	372000000000	0
bin	374000000000	0
bin	376000000000	0
bin	378000000000	0
bin	380000000000	0
bin	382000000000	0
bin	384000000000	0
bin	386000000000	0
bin	388000000000	0
bin	390000000000	0
bin	392000000000	0
bin	394000000000	0
bin	396000000000	0
bin	398000000000	0
bin	400000000000	1
bin	402000000000	0
bin	404000000000	0
bin	406000000000	0
bin	408000000000	0
bin	410000000000	0
bin	412000000000	0
bin	414000000000	0
bin	416000000000	0
bin	418000000000	0
bin	420000000000	0
bin	422000000000	0
bin	424000000000	0
bin	426000000000	0
statistic Network.rack[6].hub "bandwidth hist"
field count 93
field mean 327608971774.19
field stddev 15185244643.957
field min 292546875000
field max 410878125000
field sum 30467634375000
field sqrsum 1.0002684802236e+025
bin	-inf	0
bin	262000000000	0
bin	264000000000	0
bin	266000000000	0
bin	268000000000	0
bin	270000000000	0
bin	272000000000	0
bin	274000000000	0
bin	276000000000	0
bin	278000000000	0
bin	280000000000	0
bin	282000000000	0
bin	284000000000	0
bin	286000000000	0
bin	288000000000	0
bin	290000000000	0
bin	292000000000	1
bin	294000000000	0
bin	296000000000	0
bin	298000000000	0
bin	300000000000	1
bin	302000000000	1
bin	304000000000	0
bin	306000000000	1
bin	308000000000	2
bin	310000000000	1
bin	312000000000	3
bin	314000000000	3
bin	316000000000	8
bin	318000000000	4
bin	320000000000	5
bin	322000000000	9
bin	324000000000	8
bin	326000000000	10
bin	328000000000	4
bin	330000000000	4
bin	332000000000	6
bin	334000000000	5
bin	336000000000	2
bin	338000000000	5
bin	340000000000	1
bin	342000000000	2
bin	344000000000	1
bin	346000000000	0
bin	348000000000	1
bin	350000000000	1
bin	352000000000	0
bin	354000000000	1
bin	356000000000	0
bin	358000000000	0
bin	360000000000	0
bin	362000000000	0
bin	364000000000	0
bin	366000000000	1
bin	368000000000	0
bin	370000000000	1
bin	372000000000	0
bin	374000000000	0
bin	376000000000	0
bin	378000000000	0
bin	380000000000	0
bin	382000000000	0
bin	384000000000	0
bin	386000000000	0
bin	388000000000	0
bin	390000000000	0
bin	392000000000	0
bin	394000000000	0
bin	396000000000	0
bin	398000000000	0
bin	400000000000	0
bin	402000000000	0
bin	404000000000	0
bin	406000000000	0
bin	408000000000	0
bin	410000000000	1
bin	412000000000	0
bin	414000000000	0
bin	416000000000	0
bin	418000000000	0
bin	420000000000	0
bin	422000000000	0
bin	424000000000	0
bin	426000000000	0
bin	428000000000	0
bin	430000000000	0
bin	432000000000	0
bin	434000000000	0
bin	436000000000	0
bin	438000000000	0
bin	440000000000	0
bin	442000000000	0
statistic Network.rack[7].hub "bandwidth hist"
field count 93
field mean 333686391129.03
field stddev 17744066942.276
field min 295443750000
field max 375468750000
field sum 31032834375000
field sqrsum 1.0384200884971e+025
bin	-inf	0
bin	274000000000	0
bin	276000000000	0
bin	278000000000	0
bin	280000000000	0
bin	282000000000	0
bin	284000000000	0
bin	286000000000	0
bin	288000000000	0
bin	290000000000	0
bin	292000000000	0
bin	294000000000	1
bin	296000000000	0
bin	298000000000	1
bin	300000000000	2
bin	302000000000	1
bin	304000000000	2
bin	306000000000	0
bin	308000000000	3
bin	310000000000	0
bin	312000000000	5
bin	314000000000	0
bin	316000000000	1
bin	318000000000	4
bin	320000000000	5
bin	322000000000	5
bin	324000000000	4
bin	326000000000	3
bin	328000000000	5
bin	330000000000	0
bin	332000000000	3
bin	334000000000	7
bin	336000000000	6
bin	338000000000	1
bin	340000000000	3
bin	342000000000	5
bin	344000000000	5
bin	346000000000	0
bin	348000000000	3
bin	350000000000	0
bin	352000000000	2
bin	354000000000	2
bin	356000000000	6
bin	358000000000	2
bin	360000000000	1
bin	362000000000	3
bin	364000000000	0
bin	366000000000	0
bin	368000000000	0
bin	370000000000	0
bin	372000000000	1
bin	374000000000	1
bin	376000000000	0
bin	378000000000	0
bin	380000000000	0
bin	382000000000	0
bin	384000000000	0
bin	386000000000	0
bin	388000000000	0
bin	390000000000	0
bin	392000000000	0
bin	394000000000	0
bin	396000000000	0
statistic Network.rack[8].hub "bandwidth hist"
field count 93
field mean 327877116935.48
field stddev 18443302882.887
field min 284475000000
field max 366103125000
field sum 30492571875000
field sqrsum 1.0029110853076e+025
bin	-inf	0
bin	264000000000	0
bin	266000000000	0
bin	268000000000	0
bin	270000000000	0
bin	272000000000	0
bin	274000000000	0
bin	276000000000	0
bin	278000000000	0
bin	280000000000	0
bin	282000000000	0
bin	284000000000	1
bin	286000000000	0
bin	288000000000	0
bin	290000000000	1
bin	292000000000	0
bin	294000000000	1
bin	296000000000	0
bin	298000000000	4
bin	300000000000	0
bin	302000000000	5
bin	304000000000	3
bin	306000000000	4
bin	308000000000	1
bin	310000000000	4
bin	312000000000	0
bin	314000000000	1
bin	316000000000	2
bin	318000000000	3
bin	320000000000	1
bin	322000000000	4
bin	324000000000	1
bin	326000000000	4
bin	328000000000	7
bin	330000000000	1
bin	332000000000	7
bin	334000000000	5
bin	336000000000	7
bin	338000000000	3
bin	340000000000	3
bin	342000000000	5
bin	344000000000	2
bin	346000000000	2
bin	348000000000	2
bin	350000000000	2
bin	352000000000	0
bin	354000000000	0
bin	356000000000	2
bin	358000000000	1
bin	360000000000	0
bin	362000000000	0
bin	364000000000	2
bin	366000000000	2
bin	368000000000	0
bin	370000000000	0
bin	372000000000	0
bin	374000000000	0
bin	376000000000	0
bin	378000000000	0
bin	380000000000	0
bin	382000000000	0
bin	384000000000	0
bin	386000000000	0
bin	388000000000	0
statistic Network.rack[9].hub "bandwidth hist"
field count 93
field mean 335711391129.03
field stddev 18478515845.737
field min 294150000000
field max 372196875000
field sum 31221159375000
field sqrsum 1.0512712756846e+025
bin	-inf	0
bin	274000000000	0
bin	276000000000	0
bin	278000000000	0
bin	280000000000	0
bin	282000000000	0
bin	284000000000	0
bin	286000000000	0
bin	288000000000	0
bin	290000000000	0
bin	292000000000	0
bin	294000000000	2
bin	296000000000	0
bin	298000000000	1
bin	300000000000	1
bin	302000000000	1
bin	304000000000	0
bin	306000000000	0
bin	308000000000	1
bin	310000000000	2
bin	312000000000	2
bin	314000000000	4
bin	316000000000	4
bin	318000000000	0
bin	320000000000	5
bin	322000000000	1
bin	324000000000	3
bin	326000000000	4
bin	328000000000	3
bin	330000000000	8
bin	332000000000	2
bin	334000000000	5
bin	336000000000	4
bin	338000000000	7
bin	340000000000	2
bin	342000000000	1
bin	344000000000	4
bin	346000000000	0
bin	348000000000	5
bin	350000000000	1
bin	352000000000	1
bin	354000000000	3
bin	356000000000	2
bin	358000000000	2
bin	360000000000	3
bin	362000000000	2
bin	364000000000	2
bin	366000000000	1
bin	368000000000	1
bin	370000000000	2
bin	372000000000	1
bin	374000000000	0
bin	376000000000	0
bin	378000000000	0
bin	380000000000	0
bin	382000000000	0
bin	384000000000	0
bin	386000000000	0
bin	388000000000	0
bin	390000000000	0
bin	392000000000	0
scalar Network.tor[0] "Bandwidth: " 309229900000
statistic Network.tor[0] "flow count"
field count 93
field mean 808.82795698925
field stddev 15.464984049469
field min 774
field max 857
field sum 75221
field sqrsum 60862851
bin	-inf	0
bin	752	0
bin	754	0
bin	756	0
bin	758	0
bin	760	0
bin	762	0
bin	764	0
bin	766	0
bin	768	0
bin	770	0
bin	772	0
bin	774	1
bin	776	0
bin	778	0
bin	780	1
bin	782	1
bin	784	1
bin	786	3
bin	788	1
bin	790	3
bin	792	1
bin	794	6
bin	796	6
bin	798	7
bin	800	4
bin	802	5
bin	804	5
bin	806	5
bin	808	2
bin	810	1
bin	812	1
bin	814	3
bin	816	4
bin	818	4
bin	820	7
bin	822	6
bin	824	4
bin	826	1
bin	828	1
bin	830	2
bin	832	3
bin	834	1
bin	836	0
bin	838	2
bin	840	0
bin	842	0
bin	844	0
bin	846	0
bin	848	0
bin	850	0
bin	852	0
bin	854	0
bin	856	1
bin	858	0
bin	860	0
bin	862	0
bin	864	0
bin	866	0
bin	868	0
bin	870	0
bin	872	0
bin	874	0
bin	876	0
bin	878	0
statistic Network.tor[0] cache_occupancy
field count 93
field mean 300
field stddev 0
field min 300
field max 300
field sum 27900
field sqrsum 8370000
bin	-inf	0
bin	299	0
bin	300	93
bin	301	0
statistic Network.tor[0] activity_time_of_a_rule_A
field count 155234
field mean 5.2287087180585e-005
field stddev 8.9697558510315e-005
field min 0
field max 0.004411002147
field sum 8.116733691391
field sqrsum 0.0016733510594803
bin	-inf	0
bin	0	123469
bin	8e-005	21441
bin	0.00016	6005
bin	0.00024	2122
bin	0.00032	959
bin	0.0004	454
bin	0.00048	257
bin	0.00056	165
bin	0.00064	96
bin	0.00072	47
bin	0.0008	60
bin	0.00088	29
bin	0.00096	23
bin	0.00104	24
bin	0.00112	11
bin	0.0012	10
bin	0.00128	4
bin	0.00136	12
bin	0.00144	6
bin	0.00152	3
bin	0.0016	5
bin	0.00168	2
bin	0.00176	4
bin	0.00184	1
bin	0.00192	2
bin	0.002	0
bin	0.00208	3
bin	0.00216	0
bin	0.00224	1
bin	0.00232	2
bin	0.0024	0
bin	0.00248	1
bin	0.00256	0
bin	0.00264	0
bin	0.00272	2
bin	0.0028	0
bin	0.00288	2
bin	0.00296	1
bin	0.00304	1
bin	0.00312	0
bin	0.0032	0
bin	0.00328	1
bin	0.00336	1
bin	0.00344	1
bin	0.00352	1
bin	0.0036	0
bin	0.00368	1
bin	0.00376	1
bin	0.00384	1
bin	0.00392	0
bin	0.004	1
bin	0.00408	0
bin	0.00416	1
bin	0.00424	0
bin	0.00432	0
bin	0.0044	1
bin	0.00448	0
statistic Network.tor[0] activity_time_of_a_rule_B
field count 394467
field mean 1.7445477474313e-005
field stddev 3.8800044422693e-005
field min 0
field max 0.001708079689
field sum 6.8816651628599
field sqrsum 0.00071390018942881
bin	-inf	0
bin	0	331511
bin	3.6e-005	40921
bin	7.2e-005	12586
bin	0.000108	4633
bin	0.000144	2012
bin	0.00018	982
bin	0.000216	543
bin	0.000252	360
bin	0.000288	229
bin	0.000324	163
bin	0.00036	103
bin	0.000396	60
bin	0.000432	52
bin	0.000468	39
bin	0.000504	34
bin	0.00054	45
bin	0.000576	40
bin	0.000612	25
bin	0.000648	22
bin	0.000684	13
bin	0.00072	12
bin	0.000756	8
bin	0.000792	6
bin	0.000828	10
bin	0.000864	3
bin	0.0009	7
bin	0.000936	7
bin	0.000972	3
bin	0.001008	5
bin	0.001044	5
bin	0.00108	2
bin	0.001116	4
bin	0.001152	2
bin	0.001188	3
bin	0.001224	2
bin	0.00126	2
bin	0.001296	1
bin	0.001332	2
bin	0.001368	1
bin	0.001404	1
bin	0.00144	2
bin	0.001476	0
bin	0.001512	0
bin	0.001548	0
bin	0.001584	1
bin	0.00162	1
bin	0.001656	3
bin	0.001692	1
bin	0.001728	0
scalar Network.tor[0] "cache_content_by_app: " 0.34262948207171
scalar Network.tor[1] "Bandwidth: " 304657000000
statistic Network.tor[1] "flow count"
field count 93
field mean 808.22580645161
field stddev 23.728596319841
field min 762
field max 858
field sum 75165
field sqrsum 60802093
bin	-inf	0
bin	738	0
bin	740	0
bin	742	0
bin	744	0
bin	746	0
bin	748	0
bin	750	0
bin	752	0
bin	754	0
bin	756	0
bin	758	0
bin	760	0
bin	762	1
bin	764	0
bin	766	1
bin	768	2
bin	770	3
bin	772	2
bin	774	1
bin	776	2
bin	778	1
bin	780	0
bin	782	3
bin	784	0
bin	786	4
bin	788	2
bin	790	4
bin	792	1
bin	794	1
bin	796	4
bin	798	2
bin	800	6
bin	802	1
bin	804	2
bin	806	2
bin	808	2
bin	810	4
bin	812	3
bin	814	2
bin	816	3
bin	818	3
bin	820	3
bin	822	5
bin	824	1
bin	826	1
bin	828	1
bin	830	3
bin	832	1
bin	834	1
bin	836	2
bin	838	0
bin	840	2
bin	842	5
bin	844	1
bin	846	1
bin	848	1
bin	850	1
bin	852	0
bin	854	1
bin	856	0
bin	858	1
bin	860	0
bin	862	0
bin	864	0
bin	866	0
bin	868	0
bin	870	0
bin	872	0
bin	874	0
bin	876	0
bin	878	0
bin	880	0
bin	882	0
statistic Network.tor[1] cache_occupancy
field count 93
field mean 300
field stddev 0
field min 300
field max 300
field sum 27900
field sqrsum 8370000
bin	-inf	0
bin	299	0
bin	300	93
bin	301	0
statistic Network.tor[1] activity_time_of_a_rule_A
field count 136435
field mean 5.5385134673031e-005
field stddev 9.8018618258945e-005
field min 0
field max 0.005239569805
field sum 7.556470849115
field sqrsum 0.0017293262109785
bin	-inf	0
bin	0	106934
bin	8e-005	19615
bin	0.00016	5632
bin	0.00024	2000
bin	0.00032	906
bin	0.0004	454
bin	0.00048	268
bin	0.00056	171
bin	0.00064	103
bin	0.00072	76
bin	0.0008	53
bin	0.00088	49
bin	0.00096	35
bin	0.00104	22
bin	0.00112	23
bin	0.0012	16
bin	0.00128	11
bin	0.00136	7
bin	0.00144	11
bin	0.00152	4
bin	0.0016	6
bin	0.00168	2
bin	0.00176	6
bin	0.00184	2
bin	0.00192	2
bin	0.002	1
bin	0.00208	3
bin	0.00216	2
bin	0.00224	6
bin	0.00232	1
bin	0.0024	0
bin	0.00248	0
bin	0.00256	1
bin	0.00264	0
bin	0.00272	2
bin	0.0028	0
bin	0.00288	0
bin	0.00296	1
bin	0.00304	0
bin	0.00312	0
bin	0.0032	1
bin	0.00328	2
bin	0.00336	2
bin	0.00344	0
bin	0.00352	0
bin	0.0036	0
bin	0.00368	1
bin	0.00376	0
bin	0.00384	0
bin	0.00392	0
bin	0.004	0
bin	0.00408	0
bin	0.00416	1
bin	0.00424	0
bin	0.00432	0
bin	0.0044	0
bin	0.00448	0
bin	0.00456	1
bin	0.00464	0
bin	0.00472	0
bin	0.0048	0
bin	0.00488	1
bin	0.00496	0
bin	0.00504	0
bin	0.00512	0
bin	0.0052	1
bin	0.00528	0
statistic Network.tor[1] activity_time_of_a_rule_B
field count 403945
field mean 1.8313764982837e-005
field stddev 4.0943541010369e-005
field min 0
field max 0.001975171991
field sum 7.397753795992
field sqrsum 0.00081264176189084
bin	-inf	0
bin	0	356766
bin	4.8e-005	33361
bin	9.6e-005	8369
bin	0.000144	2734
bin	0.000192	1118
bin	0.00024	570
bin	0.000288	306
bin	0.000336	176
bin	0.000384	107
bin	0.000432	75
bin	0.00048	76
bin	0.000528	66
bin	0.000576	42
bin	0.000624	31
bin	0.000672	18
bin	0.00072	22
bin	0.000768	7
bin	0.000816	14
bin	0.000864	19
bin	0.000912	9
bin	0.00096	9
bin	0.001008	3
bin	0.001056	3
bin	0.001104	6
bin	0.001152	3
bin	0.0012	4
bin	0.001248	6
bin	0.001296	8
bin	0.001344	8
bin	0.001392	3
bin	0.00144	0
bin	0.001488	1
bin	0.001536	2
bin	0.001584	1
bin	0.001632	0
bin	0.00168	0
bin	0.001728	1
bin	0.001776	0
bin	0.001824	0
bin	0.001872	0
bin	0.00192	0
bin	0.001968	1
bin	0.002016	0
scalar Network.tor[1] "cache_content_by_app: " 0.33195020746888
scalar Network.tor[2] "Bandwidth: " 316721700000
statistic Network.tor[2] "flow count"
field count 93
field mean 804.84946236559
field stddev 21.802446131489
field min 752
field max 848
field sum 74851
field sqrsum 60287519
bin	-inf	0
bin	728	0
bin	730	0
bin	732	0
bin	734	0
bin	736	0
bin	738	0
bin	740	0
bin	742	0
bin	744	0
bin	746	0
bin	748	0
bin	750	0
bin	752	1
bin	754	0
bin	756	0
bin	758	0
bin	760	0
bin	762	0
bin	764	2
bin	766	1
bin	768	1
bin	770	2
bin	772	1
bin	774	2
bin	776	2
bin	778	0
bin	780	4
bin	782	4
bin	784	4
bin	786	4
bin	788	1
bin	790	1
bin	792	1
bin	794	0
bin	796	1
bin	798	3
bin	800	2
bin	802	5
bin	804	1
bin	806	4
bin	808	3
bin	810	3
bin	812	0
bin	814	9
bin	816	3
bin	818	3
bin	820	1
bin	822	1
bin	824	4
bin	826	2
bin	828	1
bin	830	3
bin	832	5
bin	834	3
bin	836	3
bin	838	0
bin	840	1
bin	842	0
bin	844	0
bin	846	0
bin	848	1
bin	850	0
bin	852	0
bin	854	0
bin	856	0
bin	858	0
bin	860	0
bin	862	0
bin	864	0
bin	866	0
bin	868	0
bin	870	0
bin	872	0
statistic Network.tor[2] cache_occupancy
field count 93
field mean 300
field stddev 0
field min 300
field max 300
field sum 27900
field sqrsum 8370000
bin	-inf	0
bin	299	0
bin	300	93
bin	301	0
statistic Network.tor[2] activity_time_of_a_rule_A
field count 146378
field mean 5.3082304455396e-005
field stddev 0.00011008766928674
field min 0
field max 0.007800763406
field sum 7.770081561572
field sqrsum 0.002186439868915
bin	-inf	0
bin	0	130299
bin	0.00012	11939
bin	0.00024	2491
bin	0.00036	750
bin	0.00048	327
bin	0.0006	174
bin	0.00072	119
bin	0.00084	61
bin	0.00096	35
bin	0.00108	30
bin	0.0012	24
bin	0.00132	17
bin	0.00144	16
bin	0.00156	9
bin	0.00168	15
bin	0.0018	17
bin	0.00192	2
bin	0.00204	5
bin	0.00216	7
bin	0.00228	4
bin	0.0024	3
bin	0.00252	3
bin	0.00264	2
bin	0.00276	2
bin	0.00288	1
bin	0.003	3
bin	0.00312	0
bin	0.00324	2
bin	0.00336	3
bin	0.00348	1
bin	0.0036	0
bin	0.00372	2
bin	0.00384	1
bin	0.00396	3
bin	0.00408	1
bin	0.0042	0
bin	0.00432	2
bin	0.00444	0
bin	0.00456	1
bin	0.00468	0
bin	0.0048	1
bin	0.00492	0
bin	0.00504	0
bin	0.00516	1
bin	0.00528	2
bin	0.0054	0
bin	0.00552	0
bin	0.00564	0
bin	0.00576	0
bin	0.00588	1
bin	0.006	0
bin	0.00612	1
bin	0.00624	0
bin	0.00636	0
bin	0.00648	0
bin	0.0066	0
bin	0.00672	0
bin	0.00684	0
bin	0.00696	0
bin	0.00708	0
bin	0.0072	0
bin	0.00732	0
bin	0.00744	0
bin	0.00756	0
bin	0.00768	0
bin	0.0078	1
bin	0.00792	0
statistic Network.tor[2] activity_time_of_a_rule_B
field count 399588
field mean 1.7896187386055e-005
field stddev 4.0978244087808e-005
field min 0
field max 0.002185194948
field sum 7.151101725219
field sqrsum 0.0007989705354895
bin	-inf	0
bin	0	325542
bin	3.2e-005	45585
bin	6.4e-005	15482
bin	9.6e-005	6169
bin	0.000128	2757
bin	0.00016	1392
bin	0.000192	858
bin	0.000224	524
bin	0.000256	272
bin	0.000288	205
bin	0.00032	156
bin	0.000352	106
bin	0.000384	77
bin	0.000416	55
bin	0.000448	39
bin	0.00048	38
bin	0.000512	31
bin	0.000544	39
bin	0.000576	41
bin	0.000608	23
bin	0.00064	30
bin	0.000672	17
bin	0.000704	12
bin	0.000736	10
bin	0.000768	15
bin	0.0008	10
bin	0.000832	6
bin	0.000864	13
bin	0.000896	11
bin	0.000928	10
bin	0.00096	7
bin	0.000992	4
bin	0.001024	5
bin	0.001056	6
bin	0.001088	3
bin	0.00112	5
bin	0.001152	3
bin	0.001184	5
bin	0.001216	3
bin	0.001248	3
bin	0.00128	0
bin	0.001312	3
bin	0.001344	1
bin	0.001376	4
bin	0.001408	2
bin	0.00144	0
bin	0.001472	1
bin	0.001504	1
bin	0.001536	1
bin	0.001568	2
bin	0.0016	0
bin	0.001632	0
bin	0.001664	1
bin	0.001696	0
bin	0.001728	1
bin	0.00176	0
bin	0.001792	0
bin	0.001824	0
bin	0.001856	1
bin	0.001888	0
bin	0.00192	0
bin	0.001952	0
bin	0.001984	0
bin	0.002016	0
bin	0.002048	0
bin	0.00208	0
bin	0.002112	0
bin	0.002144	0
bin	0.002176	1
bin	0.002208	0
scalar Network.tor[2] "cache_content_by_app: " 0.36842105263158
scalar Network.tor[3] "Bandwidth: " 321722200000
statistic Network.tor[3] "flow count"
field count 93
field mean 806.58064516129
field stddev 27.2788828108
field min 760
field max 862
field sum 75012
field sqrsum 60571688
bin	-inf	0
bin	734	0
bin	736	0
bin	738	0
bin	740	0
bin	742	0
bin	744	0
bin	746	0
bin	748	0
bin	750	0
bin	752	0
bin	754	0
bin	756	0
bin	758	0
bin	760	2
bin	762	0
bin	764	1
bin	766	1
bin	768	3
bin	770	2
bin	772	0
bin	774	4
bin	776	2
bin	778	3
bin	780	3
bin	782	3
bin	784	4
bin	786	2
bin	788	4
bin	790	0
bin	792	3
bin	794	3
bin	796	1
bin	798	3
bin	800	0
bin	802	2
bin	804	0
bin	806	1
bin	808	2
bin	810	1
bin	812	3
bin	814	3
bin	816	2
bin	818	2
bin	820	2
bin	822	1
bin	824	3
bin	826	1
bin	828	1
bin	830	3
bin	832	4
bin	834	2
bin	836	2
bin	838	2
bin	840	1
bin	842	2
bin	844	0
bin	846	0
bin	848	3
bin	850	1
bin	852	2
bin	854	1
bin	856	1
bin	858	0
bin	860	0
bin	862	1
bin	864	0
bin	866	0
bin	868	0
bin	870	0
bin	872	0
bin	874	0
bin	876	0
bin	878	0
bin	880	0
bin	882	0
bin	884	0
bin	886	0
bin	888	0
statistic Network.tor[3] cache_occupancy
field count 93
field mean 300
field stddev 0
field min 300
field max 300
field sum 27900
field sqrsum 8370000
bin	-inf	0
bin	299	0
bin	300	93
bin	301	0
statistic Network.tor[3] activity_time_of_a_rule_A
field count 147360
field mean 5.5803725665947e-005
field stddev 0.00011743070553311
field min 0
field max 0.00654681086
field sum 8.223237014134
field sqrsum 0.0024909635403637
bin	-inf	0
bin	0	129923
bin	0.00012	12795
bin	0.00024	2678
bin	0.00036	916
bin	0.00048	363
bin	0.0006	214
bin	0.00072	126
bin	0.00084	73
bin	0.00096	55
bin	0.00108	36
bin	0.0012	33
bin	0.00132	15
bin	0.00144	16
bin	0.00156	12
bin	0.00168	15
bin	0.0018	9
bin	0.00192	8
bin	0.00204	8
bin	0.00216	10
bin	0.00228	7
bin	0.0024	5
bin	0.00252	1
bin	0.00264	5
bin	0.00276	4
bin	0.00288	4
bin	0.003	2
bin	0.00312	4
bin	0.00324	1
bin	0.00336	4
bin	0.00348	0
bin	0.0036	3
bin	0.00372	0
bin	0.00384	1
bin	0.00396	0
bin	0.00408	0
bin	0.0042	1
bin	0.00432	0
bin	0.00444	1
bin	0.00456	3
bin	0.00468	0
bin	0.0048	0
bin	0.00492	2
bin	0.00504	2
bin	0.00516	0
bin	0.00528	0
bin	0.0054	2
bin	0.00552	0
bin	0.00564	0
bin	0.00576	1
bin	0.00588	0
bin	0.006	0
bin	0.00612	0
bin	0.00624	0
bin	0.00636	1
bin	0.00648	1
bin	0.0066	0
statistic Network.tor[3] activity_time_of_a_rule_B
field count 397734
field mean 1.7381400855786e-005
field stddev 4.0151562256488e-005
field min 0
field max 0.00238205987
field sum 6.9131740879751
field sqrsum 0.00076136509125721
bin	-inf	0
bin	0	354712
bin	4.8e-005	30840
bin	9.6e-005	7440
bin	0.000144	2390
bin	0.000192	926
bin	0.00024	464
bin	0.000288	277
bin	0.000336	169
bin	0.000384	100
bin	0.000432	80
bin	0.00048	65
bin	0.000528	57
bin	0.000576	42
bin	0.000624	27
bin	0.000672	20
bin	0.00072	15
bin	0.000768	10
bin	0.000816	11
bin	0.000864	11
bin	0.000912	4
bin	0.00096	11
bin	0.001008	11
bin	0.001056	12
bin	0.001104	1
bin	0.001152	4
bin	0.0012	8
bin	0.001248	5
bin	0.001296	5
bin	0.001344	3
bin	0.001392	2
bin	0.00144	0
bin	0.001488	0
bin	0.001536	2
bin	0.001584	2
bin	0.001632	4
bin	0.00168	0
bin	0.001728	2
bin	0.001776	1
bin	0.001824	0
bin	0.001872	0
bin	0.00192	0
bin	0.001968	0
bin	0.002016	0
bin	0.002064	0
bin	0.002112	0
bin	0.00216	0
bin	0.002208	0
bin	0.002256	0
bin	0.002304	0
bin	0.002352	1
bin	0.0024	0
scalar Network.tor[3] "cache_content_by_app: " 0.404
scalar Network.tor[4] "Bandwidth: " 319111200000
statistic Network.tor[4] "flow count"
field count 93
field mean 807.39784946237
field stddev 20.428102864174
field min 772
field max 868
field sum 75088
field sqrsum 60664282
bin	-inf	0
bin	748	0
bin	750	0
bin	752	0
bin	754	0
bin	756	0
bin	758	0
bin	760	0
bin	762	0
bin	764	0
bin	766	0
bin	768	0
bin	770	0
bin	772	1
bin	774	1
bin	776	0
bin	778	1
bin	780	3
bin	782	1
bin	784	3
bin	786	4
bin	788	3
bin	790	3
bin	792	6
bin	794	6
bin	796	1
bin	798	6
bin	800	4
bin	802	6
bin	804	4
bin	806	2
bin	808	3
bin	810	1
bin	812	5
bin	814	3
bin	816	4
bin	818	0
bin	820	1
bin	822	1
bin	824	2
bin	826	0
bin	828	1
bin	830	2
bin	832	1
bin	834	1
bin	836	3
bin	838	2
bin	840	2
bin	842	1
bin	844	0
bin	846	0
bin	848	2
bin	850	0
bin	852	1
bin	854	0
bin	856	1
bin	858	0
bin	860	0
bin	862	0
bin	864	0
bin	866	0
bin	868	1
bin	870	0
bin	872	0
bin	874	0
bin	876	0
bin	878	0
bin	880	0
bin	882	0
bin	884	0
bin	886	0
bin	888	0
bin	890	0
bin	892	0
statistic Network.tor[4] cache_occupancy
field count 93
field mean 300
field stddev 0
field min 300
field max 300
field sum 27900
field sqrsum 8370000
bin	-inf	0
bin	299	0
bin	300	93
bin	301	0
statistic Network.tor[4] activity_time_of_a_rule_A
field count 143490
field mean 5.6954955251076e-005
field stddev 0.00012013341085747
field min 0
field max 0.009540644512
field sum 8.1724665289769
field sqrsum 0.0025363009370583
bin	-inf	0
bin	0	132912
bin	0.00016	8204
bin	0.00032	1397
bin	0.00048	447
bin	0.00064	190
bin	0.0008	110
bin	0.00096	54
bin	0.00112	35
bin	0.00128	23
bin	0.00144	13
bin	0.0016	20
bin	0.00176	8
bin	0.00192	12
bin	0.00208	11
bin	0.00224	8
bin	0.0024	5
bin	0.00256	2
bin	0.00272	4
bin	0.00288	3
bin	0.00304	4
bin	0.0032	0
bin	0.00336	4
bin	0.00352	3
bin	0.00368	0
bin	0.00384	2
bin	0.004	2
bin	0.00416	2
bin	0.00432	2
bin	0.00448	2
bin	0.00464	2
bin	0.0048	3
bin	0.00496	0
bin	0.00512	1
bin	0.00528	0
bin	0.00544	1
bin	0.0056	0
bin	0.00576	0
bin	0.00592	1
bin	0.00608	0
bin	0.00624	0
bin	0.0064	0
bin	0.00656	0
bin	0.00672	0
bin	0.00688	0
bin	0.00704	0
bin	0.0072	0
bin	0.00736	0
bin	0.00752	0
bin	0.00768	2
bin	0.00784	0
bin	0.008	0
bin	0.00816	0
bin	0.00832	0
bin	0.00848	0
bin	0.00864	0
bin	0.0088	0
bin	0.00896	0
bin	0.00912	0
bin	0.00928	0
bin	0.00944	1
bin	0.0096	0
statistic Network.tor[4] activity_time_of_a_rule_B
field count 397695
field mean 1.7610340958664e-005
field stddev 4.0224775177993e-005
field min 0
field max 0.001964760485
field sum 7.003544547556
field sqrsum 0.00076681663961679
bin	-inf	0
bin	0	324720
bin	3.2e-005	45188
bin	6.4e-005	15310
bin	9.6e-005	6048
bin	0.000128	2582
bin	0.00016	1409
bin	0.000192	745
bin	0.000224	436
bin	0.000256	322
bin	0.000288	172
bin	0.00032	139
bin	0.000352	95
bin	0.000384	83
bin	0.000416	53
bin	0.000448	51
bin	0.00048	34
bin	0.000512	39
bin	0.000544	32
bin	0.000576	33
bin	0.000608	30
bin	0.00064	16
bin	0.000672	19
bin	0.000704	11
bin	0.000736	10
bin	0.000768	13
bin	0.0008	13
bin	0.000832	6
bin	0.000864	12
bin	0.000896	9
bin	0.000928	6
bin	0.00096	7
bin	0.000992	5
bin	0.001024	4
bin	0.001056	4
bin	0.001088	3
bin	0.00112	3
bin	0.001152	2
bin	0.001184	3
bin	0.001216	2
bin	0.001248	4
bin	0.00128	4
bin	0.001312	1
bin	0.001344	2
bin	0.001376	1
bin	0.001408	4
bin	0.00144	1
bin	0.001472	1
bin	0.001504	2
bin	0.001536	0
bin	0.001568	2
bin	0.0016	1
bin	0.001632	0
bin	0.001664	0
bin	0.001696	0
bin	0.001728	0
bin	0.00176	0
bin	0.001792	1
bin	0.001824	0
bin	0.001856	0
bin	0.001888	0
bin	0.00192	0
bin	0.001952	2
bin	0.001984	0
scalar Network.tor[4] "cache_content_by_app: " 0.41085271317829
scalar Network.tor[5] "Bandwidth: " 324889100000
statistic Network.tor[5] "flow count"
field count 93
field mean 821.55913978495
field stddev 20.203025153153
field min 779
field max 865
field sum 76405
field sqrsum 62808777
bin	-inf	0
bin	756	0
bin	758	0
bin	760	0
bin	762	0
bin	764	0
bin	766	0
bin	768	0
bin	770	0
bin	772	0
bin	774	0
bin	776	0
bin	778	1
bin	780	1
bin	782	1
bin	784	2
bin	786	1
bin	788	0
bin	790	1
bin	792	6
bin	794	0
bin	796	1
bin	798	0
bin	800	1
bin	802	2
bin	804	2
bin	806	5
bin	808	4
bin	810	4
bin	812	5
bin	814	1
bin	816	2
bin	818	0
bin	820	5
bin	822	3
bin	824	2
bin	826	1
bin	828	2
bin	830	4
bin	832	7
bin	834	5
bin	836	3
bin	838	2
bin	840	1
bin	842	4
bin	844	1
bin	846	3
bin	848	5
bin	850	2
bin	852	0
bin	854	1
bin	856	0
bin	858	0
bin	860	0
bin	862	1
bin	864	1
bin	866	0
bin	868	0
bin	870	0
bin	872	0
bin	874	0
bin	876	0
bin	878	0
bin	880	0
bin	882	0
bin	884	0
bin	886	0
bin	888	0
statistic Network.tor[5] cache_occupancy
field count 93
field mean 300
field stddev 0
field min 300
field max 300
field sum 27900
field sqrsum 8370000
bin	-inf	0
bin	299	0
bin	300	93
bin	301	0
statistic Network.tor[5] activity_time_of_a_rule_A
field count 151104
field mean 5.3496326388381e-005
field stddev 9.8028853272112e-005
field min 0
field max 0.00778531393
field sum 8.0835089025899
field sqrsum 0.0018844858923426
bin	-inf	0
bin	0	140687
bin	0.00016	7885
bin	0.00032	1493
bin	0.00048	488
bin	0.00064	243
bin	0.0008	95
bin	0.00096	80
bin	0.00112	35
bin	0.00128	28
bin	0.00144	15
bin	0.0016	11
bin	0.00176	11
bin	0.00192	7
bin	0.00208	11
bin	0.00224	2
bin	0.0024	2
bin	0.00256	3
bin	0.00272	0
bin	0.00288	2
bin	0.00304	1
bin	0.0032	0
bin	0.00336	1
bin	0.00352	0
bin	0.00368	1
bin	0.00384	2
bin	0.004	0
bin	0.00416	0
bin	0.00432	0
bin	0.00448	0
bin	0.00464	0
bin	0.0048	0
bin	0.00496	0
bin	0.00512	0
bin	0.00528	0
bin	0.00544	0
bin	0.0056	0
bin	0.00576	0
bin	0.00592	0
bin	0.00608	0
bin	0.00624	0
bin	0.0064	0
bin	0.00656	0
bin	0.00672	0
bin	0.00688	0
bin	0.00704	0
bin	0.0072	0
bin	0.00736	0
bin	0.00752	0
bin	0.00768	1
bin	0.00784	0
statistic Network.tor[5] activity_time_of_a_rule_B
field count 414448
field mean 1.6527077902632e-005
field stddev 3.698218197399e-005
field min 0
field max 0.001724844263
field sum 6.84961438259
field sqrsum 0.00068003572265403
bin	-inf	0
bin	0	320027
bin	2.4e-005	51958
bin	4.8e-005	21413
bin	7.2e-005	9534
bin	9.6e-005	4574
bin	0.00012	2517
bin	0.000144	1400
bin	0.000168	865
bin	0.000192	519
bin	0.000216	365
bin	0.00024	255
bin	0.000264	192
bin	0.000288	138
bin	0.000312	98
bin	0.000336	76
bin	0.00036	68
bin	0.000384	58
bin	0.000408	39
bin	0.000432	44
bin	0.000456	36
bin	0.00048	20
bin	0.000504	17
bin	0.000528	18
bin	0.000552	29
bin	0.000576	30
bin	0.0006	21
bin	0.000624	16
bin	0.000648	6
bin	0.000672	6
bin	0.000696	5
bin	0.00072	3
bin	0.000744	8
bin	0.000768	6
bin	0.000792	7
bin	0.000816	10
bin	0.00084	7
bin	0.000864	7
bin	0.000888	4
bin	0.000912	5
bin	0.000936	5
bin	0.00096	5
bin	0.000984	5
bin	0.001008	5
bin	0.001032	2
bin	0.001056	2
bin	0.00108	3
bin	0.001104	3
bin	0.001128	2
bin	0.001152	0
bin	0.001176	2
bin	0.0012	2
bin	0.001224	0
bin	0.001248	2
bin	0.001272	0
bin	0.001296	1
bin	0.00132	0
bin	0.001344	1
bin	0.001368	1
bin	0.001392	0
bin	0.001416	0
bin	0.00144	1
bin	0.001464	0
bin	0.001488	0
bin	0.001512	2
bin	0.001536	0
bin	0.00156	1
bin	0.001584	1
bin	0.001608	0
bin	0.001632	0
bin	0.001656	0
bin	0.00168	0
bin	0.001704	1
bin	0.001728	0
scalar Network.tor[5] "cache_content_by_app: " 0.39837398373984
scalar Network.tor[6] "Bandwidth: " 327799400000
statistic Network.tor[6] "flow count"
field count 93
field mean 809.1935483871
field stddev 19.391424631228
field min 765
field max 847
field sum 75255
field sqrsum 60930455
bin	-inf	0
bin	744	0
bin	746	0
bin	748	0
bin	750	0
bin	752	0
bin	754	0
bin	756	0
bin	758	0
bin	760	0
bin	762	0
bin	764	1
bin	766	0
bin	768	0
bin	770	1
bin	772	0
bin	774	2
bin	776	2
bin	778	1
bin	780	2
bin	782	2
bin	784	2
bin	786	2
bin	788	1
bin	790	2
bin	792	4
bin	794	1
bin	796	2
bin	798	7
bin	800	2
bin	802	4
bin	804	3
bin	806	2
bin	808	1
bin	810	4
bin	812	4
bin	814	3
bin	816	3
bin	818	2
bin	820	3
bin	822	3
bin	824	5
bin	826	6
bin	828	2
bin	830	0
bin	832	5
bin	834	0
bin	836	3
bin	838	3
bin	840	2
bin	842	0
bin	844	0
bin	846	1
bin	848	0
bin	850	0
bin	852	0
bin	854	0
bin	856	0
bin	858	0
bin	860	0
bin	862	0
bin	864	0
bin	866	0
bin	868	0
statistic Network.tor[6] cache_occupancy
field count 93
field mean 300
field stddev 0
field min 300
field max 300
field sum 27900
field sqrsum 8370000
bin	-inf	0
bin	299	0
bin	300	93
bin	301	0
statistic Network.tor[6] activity_time_of_a_rule_A
field count 151246
field mean 5.559647072226e-005
field stddev 0.00011436682427751
field min 0
field max 0.007681865914
field sum 8.408743810859
field sqrsum 0.0024457463676565
bin	-inf	0
bin	0	140666
bin	0.00016	7904
bin	0.00032	1437
bin	0.00048	529
bin	0.00064	252
bin	0.0008	150
bin	0.00096	76
bin	0.00112	59
bin	0.00128	32
bin	0.00144	30
bin	0.0016	17
bin	0.00176	23
bin	0.00192	16
bin	0.00208	13
bin	0.00224	9
bin	0.0024	6
bin	0.00256	4
bin	0.00272	3
bin	0.00288	3
bin	0.00304	3
bin	0.0032	1
bin	0.00336	1
bin	0.00352	2
bin	0.00368	1
bin	0.00384	1
bin	0.004	1
bin	0.00416	0
bin	0.00432	0
bin	0.00448	1
bin	0.00464	2
bin	0.0048	0
bin	0.00496	0
bin	0.00512	1
bin	0.00528	0
bin	0.00544	0
bin	0.0056	0
bin	0.00576	1
bin	0.00592	0
bin	0.00608	0
bin	0.00624	0
bin	0.0064	0
bin	0.00656	0
bin	0.00672	1
bin	0.00688	0
bin	0.00704	0
bin	0.0072	0
bin	0.00736	0
bin	0.00752	0
bin	0.00768	1
bin	0.00784	0
statistic Network.tor[6] activity_time_of_a_rule_B
field count 399481
field mean 1.6941756190044e-005
field stddev 3.8989815352932e-005
field min 0
field max 0.001798291711
field sum 6.767909704555
field sqrsum 0.00072195204966846
bin	-inf	0
bin	0	329645
bin	3.2e-005	43504
bin	6.4e-005	14626
bin	9.6e-005	5424
bin	0.000128	2585
bin	0.00016	1250
bin	0.000192	787
bin	0.000224	477
bin	0.000256	266
bin	0.000288	193
bin	0.00032	139
bin	0.000352	116
bin	0.000384	64
bin	0.000416	49
bin	0.000448	38
bin	0.00048	46
bin	0.000512	25
bin	0.000544	34
bin	0.000576	41
bin	0.000608	17
bin	0.00064	22
bin	0.000672	11
bin	0.000704	13
bin	0.000736	7
bin	0.000768	13
bin	0.0008	7
bin	0.000832	9
bin	0.000864	5
bin	0.000896	12
bin	0.000928	5
bin	0.00096	5
bin	0.000992	4
bin	0.001024	4
bin	0.001056	4
bin	0.001088	1
bin	0.00112	4
bin	0.001152	2
bin	0.001184	4
bin	0.001216	2
bin	0.001248	4
bin	0.00128	5
bin	0.001312	0
bin	0.001344	0
bin	0.001376	0
bin	0.001408	1
bin	0.00144	0
bin	0.001472	0
bin	0.001504	0
bin	0.001536	2
bin	0.001568	4
bin	0.0016	1
bin	0.001632	0
bin	0.001664	2
bin	0.001696	1
bin	0.001728	0
bin	0.00176	0
bin	0.001792	1
bin	0.001824	0
scalar Network.tor[6] "cache_content_by_app: " 0.34
scalar Network.tor[7] "Bandwidth: " 333547300000
statistic Network.tor[7] "flow count"
field count 93
field mean 805.15053763441
field stddev 27.646820021776
field min 745
field max 866
field sum 74879
field sqrsum 60359187
bin	-inf	0
bin	714	0
bin	716	0
bin	718	0
bin	720	0
bin	722	0
bin	724	0
bin	726	0
bin	728	0
bin	730	0
bin	732	0
bin	734	0
bin	736	0
bin	738	0
bin	740	0
bin	742	0
bin	744	1
bin	746	0
bin	748	0
bin	750	0
bin	752	1
bin	754	0
bin	756	0
bin	758	0
bin	760	1
bin	762	0
bin	764	1
bin	766	0
bin	768	1
bin	770	0
bin	772	0
bin	774	1
bin	776	4
bin	778	2
bin	780	2
bin	782	4
bin	784	5
bin	786	5
bin	788	6
bin	790	3
bin	792	2
bin	794	3
bin	796	2
bin	798	5
bin	800	6
bin	802	3
bin	804	0
bin	806	1
bin	808	2
bin	810	1
bin	812	1
bin	814	1
bin	816	0
bin	818	2
bin	820	0
bin	822	2
bin	824	1
bin	826	1
bin	828	3
bin	830	0
bin	832	3
bin	834	1
bin	836	0
bin	838	2
bin	840	1
bin	842	1
bin	844	0
bin	846	3
bin	848	1
bin	850	0
bin	852	1
bin	854	1
bin	856	1
bin	858	1
bin	860	0
bin	862	2
bin	864	1
bin	866	1
bin	868	0
bin	870	0
bin	872	0
bin	874	0
bin	876	0
bin	878	0
bin	880	0
bin	882	0
bin	884	0
bin	886	0
bin	888	0
bin	890	0
bin	892	0
bin	894	0
bin	896	0
bin	898	0
statistic Network.tor[7] cache_occupancy
field count 93
field mean 300
field stddev 0
field min 300
field max 300
field sum 27900
field sqrsum 8370000
bin	-inf	0
bin	299	0
bin	300	93
bin	301	0
statistic Network.tor[7] activity_time_of_a_rule_A
field count 154958
field mean 5.5655804476813e-005
field stddev 0.00011008571378339
field min 0
field max 0.00822136282
field sum 8.624312150118
field sqrsum 0.0023578958983816
bin	-inf	0
bin	0	146061
bin	0.00018	6768
bin	0.00036	1227
bin	0.00054	407
bin	0.00072	162
bin	0.0009	91
bin	0.00108	56
bin	0.00126	45
bin	0.00144	48
bin	0.00162	22
bin	0.0018	16
bin	0.00198	11
bin	0.00216	12
bin	0.00234	5
bin	0.00252	5
bin	0.0027	6
bin	0.00288	4
bin	0.00306	1
bin	0.00324	1
bin	0.00342	2
bin	0.0036	1
bin	0.00378	1
bin	0.00396	1
bin	0.00414	1
bin	0.00432	0
bin	0.0045	0
bin	0.00468	1
bin	0.00486	1
bin	0.00504	0
bin	0.00522	0
bin	0.0054	0
bin	0.00558	1
bin	0.00576	0
bin	0.00594	0
bin	0.00612	0
bin	0.0063	0
bin	0.00648	0
bin	0.00666	0
bin	0.00684	0
bin	0.00702	0
bin	0.0072	0
bin	0.00738	0
bin	0.00756	0
bin	0.00774	0
bin	0.00792	0
bin	0.0081	1
bin	0.00828	0
statistic Network.tor[7] activity_time_of_a_rule_B
field count 398857
field mean 1.6789594503351e-005
field stddev 3.8473034486332e-005
field min 0
field max 0.002775606135
field sum 6.6966472948229
field sqrsum 0.00070281042615294
bin	-inf	0
bin	0	329287
bin	3.2e-005	43766
bin	6.4e-005	14277
bin	9.6e-005	5561
bin	0.000128	2473
bin	0.00016	1281
bin	0.000192	655
bin	0.000224	431
bin	0.000256	263
bin	0.000288	173
bin	0.00032	138
bin	0.000352	92
bin	0.000384	74
bin	0.000416	47
bin	0.000448	52
bin	0.00048	22
bin	0.000512	24
bin	0.000544	33
bin	0.000576	32
bin	0.000608	19
bin	0.00064	11
bin	0.000672	16
bin	0.000704	19
bin	0.000736	9
bin	0.000768	10
bin	0.0008	12
bin	0.000832	11
bin	0.000864	7
bin	0.000896	4
bin	0.000928	5
bin	0.00096	9
bin	0.000992	4
bin	0.001024	4
bin	0.001056	4
bin	0.001088	4
bin	0.00112	6
bin	0.001152	4
bin	0.001184	1
bin	0.001216	1
bin	0.001248	2
bin	0.00128	0
bin	0.001312	2
bin	0.001344	2
bin	0.001376	0
bin	0.001408	3
bin	0.00144	0
bin	0.001472	1
bin	0.001504	1
bin	0.001536	0
bin	0.001568	1
bin	0.0016	0
bin	0.001632	0
bin	0.001664	0
bin	0.001696	1
bin	0.001728	0
bin	0.00176	0
bin	0.001792	0
bin	0.001824	2
bin	0.001856	0
bin	0.001888	0
bin	0.00192	0
bin	0.001952	0
bin	0.001984	0
bin	0.002016	0
bin	0.002048	0
bin	0.00208	0
bin	0.002112	0
bin	0.002144	0
bin	0.002176	0
bin	0.002208	0
bin	0.00224	0
bin	0.002272	0
bin	0.002304	0
bin	0.002336	0
bin	0.002368	0
bin	0.0024	0
bin	0.002432	0
bin	0.002464	0
bin	0.002496	0
bin	0.002528	0
bin	0.00256	0
bin	0.002592	0
bin	0.002624	0
bin	0.002656	0
bin	0.002688	0
bin	0.00272	0
bin	0.002752	1
bin	0.002784	0
scalar Network.tor[7] "cache_content_by_app: " 0.42125984251969
scalar Network.tor[8] "Bandwidth: " 327920500000
statistic Network.tor[8] "flow count"
field count 93
field mean 810.52688172043
field stddev 15.611862405854
field min 772
field max 855
field sum 75379
field sqrsum 61119129
bin	-inf	0
bin	750	0
bin	752	0
bin	754	0
bin	756	0
bin	758	0
bin	760	0
bin	762	0
bin	764	0
bin	766	0
bin	768	0
bin	770	0
bin	772	1
bin	774	0
bin	776	0
bin	778	0
bin	780	0
bin	782	0
bin	784	1
bin	786	3
bin	788	0
bin	790	1
bin	792	2
bin	794	6
bin	796	3
bin	798	5
bin	800	3
bin	802	9
bin	804	6
bin	806	6
bin	808	4
bin	810	7
bin	812	5
bin	814	4
bin	816	2
bin	818	2
bin	820	2
bin	822	4
bin	824	3
bin	826	2
bin	828	1
bin	830	0
bin	832	1
bin	834	2
bin	836	0
bin	838	2
bin	840	1
bin	842	0
bin	844	2
bin	846	1
bin	848	1
bin	850	0
bin	852	0
bin	854	1
bin	856	0
bin	858	0
bin	860	0
bin	862	0
bin	864	0
bin	866	0
bin	868	0
bin	870	0
bin	872	0
bin	874	0
bin	876	0
statistic Network.tor[8] cache_occupancy
field count 93
field mean 300
field stddev 0
field min 300
field max 300
field sum 27900
field sqrsum 8370000
bin	-inf	0
bin	299	0
bin	300	93
bin	301	0
statistic Network.tor[8] activity_time_of_a_rule_A
field count 150862
field mean 5.4174388369391e-005
field stddev 0.00011148638666806
field min 0
field max 0.005419003736
field sum 8.172856578183
field sqrsum 0.0023178432218079
bin	-inf	0
bin	0	120248
bin	8e-005	20532
bin	0.00016	5596
bin	0.00024	2077
bin	0.00032	843
bin	0.0004	480
bin	0.00048	281
bin	0.00056	196
bin	0.00064	127
bin	0.00072	84
bin	0.0008	80
bin	0.00088	43
bin	0.00096	43
bin	0.00104	31
bin	0.00112	24
bin	0.0012	22
bin	0.00128	18
bin	0.00136	14
bin	0.00144	8
bin	0.00152	14
bin	0.0016	9
bin	0.00168	10
bin	0.00176	5
bin	0.00184	9
bin	0.00192	6
bin	0.002	2
bin	0.00208	8
bin	0.00216	7
bin	0.00224	2
bin	0.00232	5
bin	0.0024	6
bin	0.00248	3
bin	0.00256	2
bin	0.00264	2
bin	0.00272	1
bin	0.0028	1
bin	0.00288	2
bin	0.00296	0
bin	0.00304	0
bin	0.00312	2
bin	0.0032	0
bin	0.00328	1
bin	0.00336	0
bin	0.00344	0
bin	0.00352	1
bin	0.0036	0
bin	0.00368	0
bin	0.00376	0
bin	0.00384	1
bin	0.00392	1
bin	0.004	5
bin	0.00408	0
bin	0.00416	0
bin	0.00424	0
bin	0.00432	0
bin	0.0044	1
bin	0.00448	1
bin	0.00456	0
bin	0.00464	0
bin	0.00472	1
bin	0.0048	1
bin	0.00488	0
bin	0.00496	1
bin	0.00504	0
bin	0.00512	2
bin	0.0052	2
bin	0.00528	0
bin	0.00536	1
bin	0.00544	0
statistic Network.tor[8] activity_time_of_a_rule_B
field count 404634
field mean 1.7029669355568e-005
field stddev 3.9560558473314e-005
field min 0
field max 0.002192224143
field sum 6.890783230021
field sqrsum 0.00075061369476224
bin	-inf	0
bin	0	361980
bin	4.8e-005	30770
bin	9.6e-005	7335
bin	0.000144	2291
bin	0.000192	885
bin	0.00024	450
bin	0.000288	242
bin	0.000336	128
bin	0.000384	102
bin	0.000432	78
bin	0.00048	67
bin	0.000528	57
bin	0.000576	46
bin	0.000624	43
bin	0.000672	22
bin	0.00072	24
bin	0.000768	14
bin	0.000816	10
bin	0.000864	9
bin	0.000912	12
bin	0.00096	13
bin	0.001008	7
bin	0.001056	6
bin	0.001104	6
bin	0.001152	7
bin	0.0012	9
bin	0.001248	5
bin	0.001296	4
bin	0.001344	1
bin	0.001392	5
bin	0.00144	1
bin	0.001488	1
bin	0.001536	1
bin	0.001584	0
bin	0.001632	0
bin	0.00168	0
bin	0.001728	1
bin	0.001776	0
bin	0.001824	0
bin	0.001872	0
bin	0.00192	1
bin	0.001968	0
bin	0.002016	0
bin	0.002064	0
bin	0.002112	0
bin	0.00216	1
bin	0.002208	0
scalar Network.tor[8] "cache_content_by_app: " 0.37603305785124
scalar Network.tor[9] "Bandwidth: " 335679500000
statistic Network.tor[9] "flow count"
field count 93
field mean 833.17204301075
field stddev 21.107192085573
field min 784
field max 872
field sum 77485
field sqrsum 64599323
bin	-inf	0
bin	762	0
bin	764	0
bin	766	0
bin	768	0
bin	770	0
bin	772	0
bin	774	0
bin	776	0
bin	778	0
bin	780	0
bin	782	0
bin	784	1
bin	786	0
bin	788	1
bin	790	0
bin	792	1
bin	794	1
bin	796	2
bin	798	0
bin	800	2
bin	802	1
bin	804	0
bin	806	3
bin	808	1
bin	810	2
bin	812	3
bin	814	3
bin	816	4
bin	818	3
bin	820	3
bin	822	2
bin	824	0
bin	826	3
bin	828	1
bin	830	3
bin	832	6
bin	834	4
bin	836	4
bin	838	2
bin	840	1
bin	842	3
bin	844	3
bin	846	2
bin	848	3
bin	850	0
bin	852	4
bin	854	2
bin	856	5
bin	858	4
bin	860	3
bin	862	4
bin	864	1
bin	866	1
bin	868	0
bin	870	0
bin	872	1
bin	874	0
bin	876	0
bin	878	0
bin	880	0
bin	882	0
bin	884	0
bin	886	0
bin	888	0
bin	890	0
bin	892	0
bin	894	0
statistic Network.tor[9] cache_occupancy
field count 93
field mean 300
field stddev 0
field min 300
field max 300
field sum 27900
field sqrsum 8370000
bin	-inf	0
bin	299	0
bin	300	93
bin	301	0
statistic Network.tor[9] activity_time_of_a_rule_A
field count 165551
field mean 4.9203646785268e-005
field stddev 9.8525219106098e-005
field min 0
field max 0.005212805656
field sum 8.1457129289478
field sqrsum 0.0020078288540943
bin	-inf	0
bin	0	135592
bin	8e-005	20496
bin	0.00016	5329
bin	0.00024	1859
bin	0.00032	828
bin	0.0004	457
bin	0.00048	304
bin	0.00056	179
bin	0.00064	115
bin	0.00072	76
bin	0.0008	51
bin	0.00088	38
bin	0.00096	36
bin	0.00104	24
bin	0.00112	21
bin	0.0012	13
bin	0.00128	10
bin	0.00136	15
bin	0.00144	14
bin	0.00152	15
bin	0.0016	7
bin	0.00168	9
bin	0.00176	7
bin	0.00184	8
bin	0.00192	4
bin	0.002	5
bin	0.00208	5
bin	0.00216	0
bin	0.00224	2
bin	0.00232	4
bin	0.0024	2
bin	0.00248	3
bin	0.00256	3
bin	0.00264	2
bin	0.00272	0
bin	0.0028	4
bin	0.00288	0
bin	0.00296	0
bin	0.00304	0
bin	0.00312	2
bin	0.0032	0
bin	0.00328	0
bin	0.00336	0
bin	0.00344	1
bin	0.00352	0
bin	0.0036	0
bin	0.00368	0
bin	0.00376	1
bin	0.00384	0
bin	0.00392	0
bin	0.004	0
bin	0.00408	0
bin	0.00416	0
bin	0.00424	0
bin	0.00432	2
bin	0.0044	4
bin	0.00448	2
bin	0.00456	0
bin	0.00464	0
bin	0.00472	0
bin	0.0048	0
bin	0.00488	0
bin	0.00496	0
bin	0.00504	0
bin	0.00512	1
bin	0.0052	1
bin	0.00528	0
statistic Network.tor[9] activity_time_of_a_rule_B
field count 418558
field mean 1.6059972482925e-005
field stddev 3.6934860914066e-005
field min 0
field max 0.001692011852
field sum 6.722029962508
field sqrsum 0.00067894435809774
bin	-inf	0
bin	0	326374
bin	2.4e-005	51374
bin	4.8e-005	20461
bin	7.2e-005	9243
bin	9.6e-005	4356
bin	0.00012	2373
bin	0.000144	1376
bin	0.000168	820
bin	0.000192	510
bin	0.000216	398
bin	0.00024	246
bin	0.000264	199
bin	0.000288	149
bin	0.000312	88
bin	0.000336	94
bin	0.00036	67
bin	0.000384	47
bin	0.000408	34
bin	0.000432	30
bin	0.000456	30
bin	0.00048	18
bin	0.000504	28
bin	0.000528	16
bin	0.000552	23
bin	0.000576	32
bin	0.0006	20
bin	0.000624	9
bin	0.000648	13
bin	0.000672	16
bin	0.000696	4
bin	0.00072	6
bin	0.000744	12
bin	0.000768	9
bin	0.000792	5
bin	0.000816	6
bin	0.00084	4
bin	0.000864	4
bin	0.000888	10
bin	0.000912	4
bin	0.000936	3
bin	0.00096	5
bin	0.000984	3
bin	0.001008	3
bin	0.001032	2
bin	0.001056	4
bin	0.00108	2
bin	0.001104	4
bin	0.001128	0
bin	0.001152	2
bin	0.001176	1
bin	0.0012	4
bin	0.001224	2
bin	0.001248	2
bin	0.001272	2
bin	0.001296	1
bin	0.00132	0
bin	0.001344	0
bin	0.001368	0
bin	0.001392	2
bin	0.001416	0
bin	0.00144	2
bin	0.001464	2
bin	0.001488	0
bin	0.001512	0
bin	0.001536	0
bin	0.00156	0
bin	0.001584	1
bin	0.001608	1
bin	0.001632	1
bin	0.001656	0
bin	0.00168	1
bin	0.001704	0
scalar Network.tor[9] "cache_content_by_app: " 0.359375
scalar Network.agg[0] "Bandwidth: " 4084975900000
statistic Network.agg[0] "flow count"
field count 93
field mean 3996.3440860215
field stddev 22.944874687551
field min 3946
field max 4049
field sum 371660
field sqrsum 1485329678
bin	-inf	0
bin	3920	0
bin	3922	0
bin	3924	0
bin	3926	0
bin	3928	0
bin	3930	0
bin	3932	0
bin	3934	0
bin	3936	0
bin	3938	0
bin	3940	0
bin	3942	0
bin	3944	0
bin	3946	1
bin	3948	1
bin	3950	0
bin	3952	1
bin	3954	0
bin	3956	1
bin	3958	2
bin	3960	2
bin	3962	1
bin	3964	2
bin	3966	1
bin	3968	1
bin	3970	2
bin	3972	1
bin	3974	0
bin	3976	4
bin	3978	0
bin	3980	2
bin	3982	2
bin	3984	2
bin	3986	5
bin	3988	3
bin	3990	5
bin	3992	3
bin	3994	3
bin	3996	4
bin	3998	4
bin	4000	1
bin	4002	4
bin	4004	5
bin	4006	4
bin	4008	2
bin	4010	1
bin	4012	3
bin	4014	4
bin	4016	1
bin	4018	1
bin	4020	1
bin	4022	1
bin	4024	0
bin	4026	0
bin	4028	1
bin	4030	3
bin	4032	1
bin	4034	3
bin	4036	0
bin	4038	1
bin	4040	1
bin	4042	1
bin	4044	0
bin	4046	0
bin	4048	1
bin	4050	0
bin	4052	0
bin	4054	0
bin	4056	0
bin	4058	0
bin	4060	0
bin	4062	0
bin	4064	0
bin	4066	0
bin	4068	0
bin	4070	0
bin	4072	0
bin	4074	0
bin	4076	0
statistic Network.agg[0] cache_occupancy
field count 93
field mean 1500
field stddev 0
field min 1500
field max 1500
field sum 139500
field sqrsum 209250000
bin	-inf	0
bin	1499	0
bin	1500	93
bin	1501	0
statistic Network.agg[0] activity_time_of_a_rule_A
field count 2486766
field mean 4.4596530585697e-006
field stddev 5.8825564118844e-006
field min 0
field max 9.0578879e-005
field sum 11.090113597847
field sqrsum 0.00013551124371439
bin	-inf	0
bin	0	1201838
bin	1.6e-006	202057
bin	3.2e-006	191765
bin	4.8e-006	170324
bin	6.4e-006	150016
bin	8e-006	129109
bin	9.6e-006	108701
bin	1.12e-005	88144
bin	1.28e-005	68445
bin	1.44e-005	50696
bin	1.6e-005	37159
bin	1.76e-005	25840
bin	1.92e-005	17843
bin	2.08e-005	12180
bin	2.24e-005	8387
bin	2.4e-005	5926
bin	2.56e-005	4266
bin	2.72e-005	3240
bin	2.88e-005	2372
bin	3.04e-005	1827
bin	3.2e-005	1404
bin	3.36e-005	1168
bin	3.52e-005	928
bin	3.68e-005	682
bin	3.84e-005	562
bin	4e-005	457
bin	4.16e-005	351
bin	4.32e-005	267
bin	4.48e-005	212
bin	4.64e-005	143
bin	4.8e-005	90
bin	4.96e-005	90
bin	5.12e-005	60
bin	5.28e-005	48
bin	5.44e-005	39
bin	5.6e-005	28
bin	5.76e-005	22
bin	5.92e-005	18
bin	6.08e-005	14
bin	6.24e-005	13
bin	6.4e-005	8
bin	6.56e-005	9
bin	6.72e-005	4
bin	6.88e-005	2
bin	7.04e-005	2
bin	7.2e-005	6
bin	7.36e-005	2
bin	7.52e-005	0
bin	7.68e-005	0
bin	7.84e-005	0
bin	8e-005	0
bin	8.16e-005	1
bin	8.32e-005	0
bin	8.48e-005	0
bin	8.64e-005	0
bin	8.8e-005	0
bin	8.96e-005	1
bin	9.12e-005	0
statistic Network.agg[0] activity_time_of_a_rule_B
field count 4290222
field mean 7.0328441114426e-006
field stddev 1.0432791694004e-005
field min 0
field max 0.00019138404
field sum 30.172462529482
field sqrsum 0.00067915936121843
bin	-inf	0
bin	0	2321110
bin	3.2e-006	382561
bin	6.4e-006	356515
bin	9.6e-006	308444
bin	1.28e-005	245709
bin	1.6e-005	181830
bin	1.92e-005	132171
bin	2.24e-005	95938
bin	2.56e-005	69724
bin	2.88e-005	51340
bin	3.2e-005	37232
bin	3.52e-005	27247
bin	3.84e-005	20250
bin	4.16e-005	15045
bin	4.48e-005	11177
bin	4.8e-005	8120
bin	5.12e-005	6189
bin	5.44e-005	4567
bin	5.76e-005	3594
bin	6.08e-005	2666
bin	6.4e-005	2074
bin	6.72e-005	1605
bin	7.04e-005	1151
bin	7.36e-005	864
bin	7.68e-005	690
bin	8e-005	549
bin	8.32e-005	384
bin	8.64e-005	319
bin	8.96e-005	236
bin	9.28e-005	200
bin	9.6e-005	147
bin	9.92e-005	111
bin	0.0001024	96
bin	0.0001056	77
bin	0.0001088	68
bin	0.000112	40
bin	0.0001152	29
bin	0.0001184	39
bin	0.0001216	21
bin	0.0001248	20
bin	0.000128	18
bin	0.0001312	10
bin	0.0001344	7
bin	0.0001376	9
bin	0.0001408	7
bin	0.000144	7
bin	0.0001472	4
bin	0.0001504	2
bin	0.0001536	0
bin	0.0001568	2
bin	0.00016	0
bin	0.0001632	2
bin	0.0001664	0
bin	0.0001696	2
bin	0.0001728	1
bin	0.000176	1
bin	0.0001792	0
bin	0.0001824	0
bin	0.0001856	0
bin	0.0001888	1
bin	0.000192	0
scalar Network.agg[0] "cache_content_by_app: " 0.33443435177539
statistic Network.dest "miss count"
field count 32212286
field mean 0.72888248291351
field stddev 0.85666435083105
field min 0
field max 2
field sum 23478971
field sqrsum 40753163
bin	-inf	0
bin	0	17370411
bin	1	6204779
bin	2	8637096
bin	3	0
statistic Network.dest "out of order"
field count 32212286
field mean 1.1001136647054
field stddev 10.373736114782
field min -19
field max 5124
field sum 35437176
field sqrsum 3505490676
bin	-inf	0
bin	-100	61012
bin	0	32144728
bin	100	1408
bin	200	1431
bin	300	1351
bin	400	1173
bin	500	75
bin	600	88
bin	700	81
bin	800	80
bin	900	61
bin	1000	78
bin	1100	69
bin	1200	80
bin	1300	64
bin	1400	54
bin	1500	46
bin	1600	50
bin	1700	47
bin	1800	37
bin	1900	33
bin	2000	47
bin	2100	28
bin	2200	36
bin	2300	21
bin	2400	17
bin	2500	14
bin	2600	25
bin	2700	13
bin	2800	12
bin	2900	10
bin	3000	0
bin	3100	1
bin	3200	1
bin	3300	1
bin	3400	2
bin	3500	1
bin	3600	0
bin	3700	2
bin	3800	0
bin	3900	0
bin	4000	1
bin	4100	1
bin	4200	1
bin	4300	0
bin	4400	1
bin	4500	1
bin	4600	0
bin	4700	1
bin	4800	1
bin	4900	1
bin	5000	0
bin	5100	1
bin	5200	0
statistic Network.dest "bandwidth to destination"
field count 93
field mean 3221285383064.5
field stddev 52653568235.767
field min 3095737500000
field max 3325125000000
field sum 2.99579540625e+014
field sqrsum 9.6528625591931e+026
bin	-inf	0
bin	3035000000000	0
bin	3040000000000	0
bin	3045000000000	0
bin	3050000000000	0
bin	3055000000000	0
bin	3060000000000	0
bin	3065000000000	0
bin	3070000000000	0
bin	3075000000000	0
bin	3080000000000	0
bin	3085000000000	0
bin	3090000000000	0
bin	3095000000000	2
bin	3100000000000	0
bin	3105000000000	0
bin	3110000000000	0
bin	3115000000000	0
bin	3120000000000	0
bin	3125000000000	0
bin	3130000000000	3
bin	3135000000000	1
bin	3140000000000	1
bin	3145000000000	1
bin	3150000000000	1
bin	3155000000000	4
bin	3160000000000	2
bin	3165000000000	4
bin	3170000000000	3
bin	3175000000000	1
bin	3180000000000	2
bin	3185000000000	1
bin	3190000000000	3
bin	3195000000000	3
bin	3200000000000	4
bin	3205000000000	5
bin	3210000000000	4
bin	3215000000000	1
bin	3220000000000	3
bin	3225000000000	3
bin	3230000000000	3
bin	3235000000000	2
bin	3240000000000	2
bin	3245000000000	2
bin	3250000000000	3
bin	3255000000000	4
bin	3260000000000	2
bin	3265000000000	2
bin	3270000000000	5
bin	3275000000000	2
bin	3280000000000	1
bin	3285000000000	5
bin	3290000000000	2
bin	3295000000000	3
bin	3300000000000	0
bin	3305000000000	0
bin	3310000000000	0
bin	3315000000000	1
bin	3320000000000	1
bin	3325000000000	1
bin	3330000000000	0
bin	3335000000000	0
bin	3340000000000	0
bin	3345000000000	0
bin	3350000000000	0
bin	3355000000000	0
bin	3360000000000	0
bin	3365000000000	0
bin	3370000000000	0
bin	3375000000000	0
bin	3380000000000	0
bin	3385000000000	0
statistic Network.dest miss_count_by_apps
field count 32212286
field mean 0.97880490381838
field stddev 0.94989747138113
field min 0
field max 2.5
field sum 31529543.5
field sqrsum 59926584.25
bin	-inf	0
bin	-0.02	11027333
bin	0.01	0
bin	0.04	0
bin	0.07	0
bin	0.1	0
bin	0.13	0
bin	0.16	0
bin	0.19	0
bin	0.22	0
bin	0.25	0
bin	0.28	0
bin	0.31	0
bin	0.34	0
bin	0.37	0
bin	0.4	0
bin	0.43	0
bin	0.46	0
bin	0.49	6343078
bin	0.52	0
bin	0.55	0
bin	0.58	0
bin	0.61	0
bin	0.64	0
bin	0.67	0
bin	0.7	0
bin	0.73	0
bin	0.76	0
bin	0.79	0
bin	0.82	0
bin	0.85	0
bin	0.88	0
bin	0.91	0
bin	0.94	0
bin	0.97	0
bin	1	1836780
bin	1.03	0
bin	1.06	0
bin	1.09	0
bin	1.12	0
bin	1.15	0
bin	1.18	0
bin	1.21	0
bin	1.24	0
bin	1.27	0
bin	1.3	0
bin	1.33	0
bin	1.36	0
bin	1.39	0
bin	1.42	0
bin	1.45	0
bin	1.48	4367999
bin	1.51	0
bin	1.54	0
bin	1.57	0
bin	1.6	0
bin	1.63	0
bin	1.66	0
bin	1.69	0
bin	1.72	0
bin	1.75	0
bin	1.78	0
bin	1.81	0
bin	1.84	0
bin	1.87	0
bin	1.9	0
bin	1.93	0
bin	1.96	0
bin	1.99	3247028
bin	2.02	0
bin	2.05	0
bin	2.08	0
bin	2.11	0
bin	2.14	0
bin	2.17	0
bin	2.2	0
bin	2.23	0
bin	2.26	0
bin	2.29	0
bin	2.32	0
bin	2.35	0
bin	2.38	0
bin	2.41	0
bin	2.44	0
bin	2.47	0
bin	2.5	5390068
bin	2.53	0
bin	2.56	0
bin	2.59	0
bin	2.62	0
bin	2.65	0
scalar Network.dest "Simulation duration (in minutes). By chrono library: " 7.3166666666667

