version 2
run General-2-20230921-09:03:32-15612
attr configname General
attr datetime 20230921-09:03:32
attr experiment General
attr inifile omnetpp.ini
attr iterationvars "$endSim=3.12s, $hosts=15000, $SizeDist=i-hadoop, $p=0.5, $scale=1, $alg=diversity, $diversityTh=2, $pAlg=0.5, $countTh=4, $ThInAgg=2.5e9, $packetIndexAgg=4, $packetIndexCosw=4, $NumOfToRs=10, $cacheToR=300, $cacheAgg=10*300*0.5, $thInCons=2.5e9, $rate=1600000000000, $S=xxx/diversity p = 0.5 th in Agg = 2.5e9 countTh = 4 App A=(Hadoop 2.5e9 t 4) App B (avg(Hadoop) 2.5e9 d 4)/end time = 3.12s CToR = 300/"
attr iterationvarsf endSim=3.12s,hosts=15000,SizeDist=i-hadoop,p=0.5,scale=1,alg=diversity,diversityTh=2,pAlg=0.5,countTh=4,ThInAgg=2.5e9,packetIndexAgg=4,packetIndexCosw=4,NumOfToRs=10,cacheToR=300,cacheAgg=10#2a300#2a0.5,thInCons=2.5e9,rate=1600000000000,S=xxx#2fdiversity_p_=_0.5_th_in_Agg_=_2.5e9_countTh_=_4_App_A=(Hadoop_2.5e9_t_4)_App_B_(avg(Hadoop)_2.5e9_d_4)#2fend_time_=_3.12s_CToR_=_300#2f-
attr measurement "$endSim=3.12s, $hosts=15000, $SizeDist=i-hadoop, $p=0.5, $scale=1, $alg=diversity, $diversityTh=2, $pAlg=0.5, $countTh=4, $ThInAgg=2.5e9, $packetIndexAgg=4, $packetIndexCosw=4, $NumOfToRs=10, $cacheToR=300, $cacheAgg=10*300*0.5, $thInCons=2.5e9, $rate=1600000000000, $S=xxx/diversity p = 0.5 th in Agg = 2.5e9 countTh = 4 App A=(Hadoop 2.5e9 t 4) App B (avg(Hadoop) 2.5e9 d 4)/end time = 3.12s CToR = 300/"
attr network Network
attr processid 15612
attr repetition 0
attr replication #0
attr resultdir results
attr runnumber 2
attr seedset 2
itervar NumOfToRs 10
itervar S "xxx/diversity p = 0.5 th in Agg = 2.5e9 countTh = 4 App A=(Hadoop 2.5e9 t 4) App B (avg(Hadoop) 2.5e9 d 4)/end time = 3.12s CToR = 300/"
itervar SizeDist i-hadoop
itervar ThInAgg 2.5e9
itervar alg diversity
itervar cacheAgg 10*300*0.5
itervar cacheToR 300
itervar countTh 4
itervar diversityTh 2
itervar endSim 3.12s
itervar hosts 15000
itervar p 0.5
itervar pAlg 0.5
itervar packetIndexAgg 4
itervar packetIndexCosw 4
itervar rate 1600000000000
itervar scale 1
itervar thInCons 2.5e9
param Network.estimate_rate_interval 0.5e-3
param Network.policy_size "\"10e6\""
param Network.rack[*].number_of_hosts 15000
param Network.size_distribution "\"size_distribution/i-hadoop.csv\""
param Network.prob_of_app_A 0.5
param Network.scale 1
param Network.algorithm "\"diversity\""
param Network.diversity_th 2
param Network.p_in_algorithm 0.5
param Network.count_th 4
param Network.push_threshold_in_aggregation 2.5e9
param Network.packet_index_for_decision_Agg 4
param Network.packet_index_for_decision_cosw 4
param Network.cache_size "\"2222\""
param Network.NumOfToRs 10
param Network.NumOfAggregation 1
param Network.tor[*].max_cache_size 300
param Network.agg[*].max_cache_size 10*300*0.5
param Network.push_threshold_in_controller_switch 2.5e9
param Network.total_rate_in_tor "\"1600000000000\""
param Network.output_file "\"xxx/diversity p = 0.5 th in Agg = 2.5e9 countTh = 4 App A=(Hadoop 2.5e9 t 4) App B (avg(Hadoop) 2.5e9 d 4)/end time = 3.12s CToR = 300/\""
param Network.run_elephant true
param Network.bandwidth_elephant_threshold "\"2.5e9\""
param Network.run_push true
param Network.record_traffic false
param Network.create_offline_traffic false
param Network.linedelay 0.2
param Network.tor[*].threshold 2
param Network.agg[*].threshold 2
param Network.tor[*].Type 1001
param Network.agg[*].Type 1002
param Network.rack[*].host[*].flow_appearance "\"\""
param Network.rack[*].host[*].flow_size "\"\""
param Network.propagation_time "\"\""
param Network.processing_time_on_data_packet_in_sw "\"\""
param Network.processing_time_on_data_packet_in_controller "\"\""
param Network.insertion_delay "\"\""
param Network.eviction_delay "\"\""
param Network.elephant_table_size "\"\""
param Network.flush_elephant_time "\"\""
param Network.check_for_elephant_time "\"\""
param Network.elephant_sample_rx "\"\""
param Network.already_requested_threshold "\"\""
param Network.cache_percentage "\"\""
param Network.eviction_sample_size "\"\""
param Network.inter_arrival_time_between_packets "\"\""
param Network.inter_arrival_time_between_flowlets "\"\""
param Network.inter_arrival_time_between_flows "\"\""
param Network.large_flow "\"\""
param Network.last_flow_appearance "\"0\""
param Network.rack[*].last_flow_appearance 0

scalar Network.controller "prob_of_app_A: " 0.5
scalar Network.tor[0] "max_cache_size: " 300
scalar Network.tor[0] "push threshold: " 0
scalar Network.tor[1] "max_cache_size: " 300
scalar Network.tor[1] "push threshold: " 0
scalar Network.tor[2] "max_cache_size: " 300
scalar Network.tor[2] "push threshold: " 0
scalar Network.tor[3] "max_cache_size: " 300
scalar Network.tor[3] "push threshold: " 0
scalar Network.tor[4] "max_cache_size: " 300
scalar Network.tor[4] "push threshold: " 0
scalar Network.tor[5] "max_cache_size: " 300
scalar Network.tor[5] "push threshold: " 0
scalar Network.tor[6] "max_cache_size: " 300
scalar Network.tor[6] "push threshold: " 0
scalar Network.tor[7] "max_cache_size: " 300
scalar Network.tor[7] "push threshold: " 0
scalar Network.tor[8] "max_cache_size: " 300
scalar Network.tor[8] "push threshold: " 0
scalar Network.tor[9] "max_cache_size: " 300
scalar Network.tor[9] "push threshold: " 0
scalar Network.agg[0] "max_cache_size: " 1500
scalar Network.agg[0] "push threshold: " 2500000000
scalar Network.dest "run_elephant: " 1
scalar Network.dest "run_push: " 1
scalar Network.dest "cache_size: " 2222
scalar Network.dest "scale: " 1
scalar Network.dest "total_rate_in_tor: " 1600000000000
scalar Network.controller "INTERVAL: " 0.0001
scalar Network.controller "insertion_rate: " 55808633.333333
statistic Network.controller Total_bandwidth_hist
field count 1200
field mean 392.5493
field stddev 45.453414733508
field min 351.72
field max 1856.76
field sum 471059.16
field sqrsum 187391092.9968
bin	-inf	0
bin	0	0
bin	50	0
bin	100	0
bin	150	0
bin	200	0
bin	250	0
bin	300	0
bin	350	882
bin	400	315
bin	450	0
bin	500	1
bin	550	0
bin	600	0
bin	650	1
bin	700	0
bin	750	0
bin	800	0
bin	850	0
bin	900	0
bin	950	0
bin	1000	0
bin	1050	0
bin	1100	0
bin	1150	0
bin	1200	0
bin	1250	0
bin	1300	0
bin	1350	0
bin	1400	0
bin	1450	0
bin	1500	0
bin	1550	0
bin	1600	0
bin	1650	0
bin	1700	0
bin	1750	0
bin	1800	0
bin	1850	1
bin	1900	0
bin	1950	0
bin	2000	0
bin	2050	0
bin	2100	0
bin	2150	0
bin	2200	0
bin	2250	0
statistic Network.rack[0].hub "bandwidth hist"
field count 1200
field mean 319204200000
field stddev 18709525050.975
field min 271920000000
field max 384600000000
field sum 3.8304504e+014
field sqrsum 1.22689291104e+026
bin	-inf	0
bin	271000000000	1
bin	273000000000	1
bin	275000000000	1
bin	277000000000	3
bin	279000000000	9
bin	281000000000	10
bin	283000000000	5
bin	285000000000	14
bin	287000000000	13
bin	289000000000	9
bin	291000000000	18
bin	293000000000	18
bin	295000000000	19
bin	297000000000	33
bin	299000000000	45
bin	301000000000	32
bin	303000000000	30
bin	305000000000	40
bin	307000000000	43
bin	309000000000	62
bin	311000000000	53
bin	313000000000	46
bin	315000000000	63
bin	317000000000	73
bin	319000000000	64
bin	321000000000	50
bin	323000000000	51
bin	325000000000	36
bin	327000000000	40
bin	329000000000	25
bin	331000000000	33
bin	333000000000	35
bin	335000000000	22
bin	337000000000	21
bin	339000000000	26
bin	341000000000	17
bin	343000000000	25
bin	345000000000	13
bin	347000000000	11
bin	349000000000	16
bin	351000000000	10
bin	353000000000	12
bin	355000000000	9
bin	357000000000	11
bin	359000000000	5
bin	361000000000	6
bin	363000000000	5
bin	365000000000	3
bin	367000000000	2
bin	369000000000	2
bin	371000000000	4
bin	373000000000	1
bin	375000000000	1
bin	377000000000	0
bin	379000000000	1
bin	381000000000	0
bin	383000000000	2
bin	385000000000	0
statistic Network.rack[1].hub "bandwidth hist"
field count 1200
field mean 308053200000
field stddev 14407898367.66
field min 261120000000
field max 357840000000
field sum 3.6966384e+014
field sqrsum 1.141250262912e+026
bin	-inf	0
bin	258000000000	0
bin	260000000000	1
bin	262000000000	0
bin	264000000000	0
bin	266000000000	0
bin	268000000000	1
bin	270000000000	0
bin	272000000000	5
bin	274000000000	3
bin	276000000000	3
bin	278000000000	5
bin	280000000000	10
bin	282000000000	16
bin	284000000000	22
bin	286000000000	20
bin	288000000000	33
bin	290000000000	30
bin	292000000000	34
bin	294000000000	42
bin	296000000000	71
bin	298000000000	57
bin	300000000000	74
bin	302000000000	65
bin	304000000000	74
bin	306000000000	71
bin	308000000000	71
bin	310000000000	57
bin	312000000000	53
bin	314000000000	52
bin	316000000000	44
bin	318000000000	45
bin	320000000000	31
bin	322000000000	31
bin	324000000000	37
bin	326000000000	32
bin	328000000000	19
bin	330000000000	25
bin	332000000000	10
bin	334000000000	13
bin	336000000000	11
bin	338000000000	11
bin	340000000000	6
bin	342000000000	4
bin	344000000000	1
bin	346000000000	3
bin	348000000000	1
bin	350000000000	2
bin	352000000000	1
bin	354000000000	0
bin	356000000000	3
bin	358000000000	0
statistic Network.rack[2].hub "bandwidth hist"
field count 1200
field mean 323726500000
field stddev 19979701168.916
field min 267720000000
field max 396480000000
field sum 3.884718e+014
field sqrsum 1.262372431248e+026
bin	-inf	0
bin	266000000000	1
bin	268000000000	0
bin	270000000000	0
bin	272000000000	0
bin	274000000000	0
bin	276000000000	1
bin	278000000000	4
bin	280000000000	5
bin	282000000000	4
bin	284000000000	7
bin	286000000000	12
bin	288000000000	10
bin	290000000000	14
bin	292000000000	22
bin	294000000000	20
bin	296000000000	29
bin	298000000000	25
bin	300000000000	30
bin	302000000000	26
bin	304000000000	24
bin	306000000000	46
bin	308000000000	28
bin	310000000000	43
bin	312000000000	44
bin	314000000000	46
bin	316000000000	42
bin	318000000000	52
bin	320000000000	46
bin	322000000000	41
bin	324000000000	43
bin	326000000000	42
bin	328000000000	46
bin	330000000000	39
bin	332000000000	38
bin	334000000000	33
bin	336000000000	39
bin	338000000000	34
bin	340000000000	24
bin	342000000000	35
bin	344000000000	34
bin	346000000000	22
bin	348000000000	28
bin	350000000000	23
bin	352000000000	15
bin	354000000000	17
bin	356000000000	13
bin	358000000000	11
bin	360000000000	7
bin	362000000000	8
bin	364000000000	6
bin	366000000000	6
bin	368000000000	4
bin	370000000000	2
bin	372000000000	0
bin	374000000000	2
bin	376000000000	3
bin	378000000000	2
bin	380000000000	0
bin	382000000000	0
bin	384000000000	0
bin	386000000000	1
bin	388000000000	0
bin	390000000000	0
bin	392000000000	0
bin	394000000000	0
bin	396000000000	1
bin	398000000000	0
statistic Network.rack[3].hub "bandwidth hist"
field count 1200
field mean 324791200000
field stddev 19148736886.029
field min 281040000000
field max 413160000000
field sum 3.8974944e+014
field sqrsum 1.27026830592e+026
bin	-inf	0
bin	280000000000	2
bin	282000000000	1
bin	284000000000	4
bin	286000000000	7
bin	288000000000	10
bin	290000000000	13
bin	292000000000	9
bin	294000000000	13
bin	296000000000	22
bin	298000000000	21
bin	300000000000	24
bin	302000000000	28
bin	304000000000	32
bin	306000000000	35
bin	308000000000	45
bin	310000000000	43
bin	312000000000	42
bin	314000000000	50
bin	316000000000	37
bin	318000000000	56
bin	320000000000	57
bin	322000000000	41
bin	324000000000	52
bin	326000000000	42
bin	328000000000	58
bin	330000000000	53
bin	332000000000	51
bin	334000000000	52
bin	336000000000	42
bin	338000000000	44
bin	340000000000	33
bin	342000000000	34
bin	344000000000	27
bin	346000000000	19
bin	348000000000	18
bin	350000000000	9
bin	352000000000	13
bin	354000000000	12
bin	356000000000	4
bin	358000000000	2
bin	360000000000	3
bin	362000000000	5
bin	364000000000	4
bin	366000000000	2
bin	368000000000	0
bin	370000000000	1
bin	372000000000	2
bin	374000000000	4
bin	376000000000	3
bin	378000000000	0
bin	380000000000	2
bin	382000000000	1
bin	384000000000	2
bin	386000000000	2
bin	388000000000	1
bin	390000000000	2
bin	392000000000	0
bin	394000000000	1
bin	396000000000	1
bin	398000000000	2
bin	400000000000	0
bin	402000000000	1
bin	404000000000	0
bin	406000000000	0
bin	408000000000	2
bin	410000000000	1
bin	412000000000	1
bin	414000000000	0
statistic Network.rack[4].hub "bandwidth hist"
field count 1200
field mean 303596000000
field stddev 18430088029.832
field min 262920000000
field max 379920000000
field sum 3.643152e+014
field sqrsum 1.110118995648e+026
bin	-inf	0
bin	246000000000	0
bin	248000000000	0
bin	250000000000	0
bin	252000000000	0
bin	254000000000	0
bin	256000000000	0
bin	258000000000	0
bin	260000000000	0
bin	262000000000	4
bin	264000000000	1
bin	266000000000	4
bin	268000000000	5
bin	270000000000	7
bin	272000000000	11
bin	274000000000	14
bin	276000000000	12
bin	278000000000	29
bin	280000000000	23
bin	282000000000	32
bin	284000000000	32
bin	286000000000	48
bin	288000000000	48
bin	290000000000	43
bin	292000000000	48
bin	294000000000	61
bin	296000000000	75
bin	298000000000	62
bin	300000000000	49
bin	302000000000	78
bin	304000000000	46
bin	306000000000	58
bin	308000000000	44
bin	310000000000	46
bin	312000000000	42
bin	314000000000	52
bin	316000000000	27
bin	318000000000	17
bin	320000000000	18
bin	322000000000	21
bin	324000000000	15
bin	326000000000	20
bin	328000000000	14
bin	330000000000	13
bin	332000000000	9
bin	334000000000	9
bin	336000000000	2
bin	338000000000	15
bin	340000000000	5
bin	342000000000	1
bin	344000000000	4
bin	346000000000	3
bin	348000000000	4
bin	350000000000	0
bin	352000000000	1
bin	354000000000	0
bin	356000000000	4
bin	358000000000	4
bin	360000000000	1
bin	362000000000	3
bin	364000000000	2
bin	366000000000	3
bin	368000000000	3
bin	370000000000	2
bin	372000000000	4
bin	374000000000	1
bin	376000000000	0
bin	378000000000	1
bin	380000000000	0
statistic Network.rack[5].hub "bandwidth hist"
field count 1200
field mean 308187900000
field stddev 21320050767.466
field min 258960000000
field max 381360000000
field sum 3.6982548e+014
field sqrsum 1.145207369808e+026
bin	-inf	0
bin	258000000000	1
bin	260000000000	0
bin	262000000000	0
bin	264000000000	0
bin	266000000000	0
bin	268000000000	3
bin	270000000000	3
bin	272000000000	4
bin	274000000000	10
bin	276000000000	14
bin	278000000000	23
bin	280000000000	24
bin	282000000000	28
bin	284000000000	40
bin	286000000000	42
bin	288000000000	41
bin	290000000000	61
bin	292000000000	43
bin	294000000000	50
bin	296000000000	59
bin	298000000000	53
bin	300000000000	49
bin	302000000000	50
bin	304000000000	61
bin	306000000000	42
bin	308000000000	46
bin	310000000000	27
bin	312000000000	32
bin	314000000000	28
bin	316000000000	28
bin	318000000000	31
bin	320000000000	25
bin	322000000000	31
bin	324000000000	23
bin	326000000000	15
bin	328000000000	19
bin	330000000000	11
bin	332000000000	22
bin	334000000000	14
bin	336000000000	18
bin	338000000000	17
bin	340000000000	12
bin	342000000000	10
bin	344000000000	8
bin	346000000000	8
bin	348000000000	12
bin	350000000000	12
bin	352000000000	7
bin	354000000000	3
bin	356000000000	7
bin	358000000000	5
bin	360000000000	7
bin	362000000000	1
bin	364000000000	5
bin	366000000000	3
bin	368000000000	2
bin	370000000000	2
bin	372000000000	1
bin	374000000000	3
bin	376000000000	0
bin	378000000000	2
bin	380000000000	2
bin	382000000000	0
statistic Network.rack[6].hub "bandwidth hist"
field count 1200
field mean 312875500000
field stddev 26807176906.471
field min 255720000000
field max 405840000000
field sum 3.754506e+014
field sqrsum 1.18330925256e+026
bin	-inf	0
bin	243000000000	0
bin	245000000000	0
bin	247000000000	0
bin	249000000000	0
bin	251000000000	0
bin	253000000000	0
bin	255000000000	2
bin	257000000000	1
bin	259000000000	3
bin	261000000000	1
bin	263000000000	11
bin	265000000000	4
bin	267000000000	10
bin	269000000000	11
bin	271000000000	14
bin	273000000000	23
bin	275000000000	18
bin	277000000000	19
bin	279000000000	27
bin	281000000000	23
bin	283000000000	29
bin	285000000000	17
bin	287000000000	24
bin	289000000000	21
bin	291000000000	33
bin	293000000000	27
bin	295000000000	31
bin	297000000000	25
bin	299000000000	35
bin	301000000000	33
bin	303000000000	29
bin	305000000000	32
bin	307000000000	41
bin	309000000000	40
bin	311000000000	28
bin	313000000000	41
bin	315000000000	50
bin	317000000000	50
bin	319000000000	32
bin	321000000000	45
bin	323000000000	34
bin	325000000000	22
bin	327000000000	31
bin	329000000000	23
bin	331000000000	21
bin	333000000000	24
bin	335000000000	11
bin	337000000000	18
bin	339000000000	13
bin	341000000000	14
bin	343000000000	23
bin	345000000000	8
bin	347000000000	18
bin	349000000000	15
bin	351000000000	11
bin	353000000000	9
bin	355000000000	12
bin	357000000000	8
bin	359000000000	5
bin	361000000000	4
bin	363000000000	4
bin	365000000000	3
bin	367000000000	3
bin	369000000000	2
bin	371000000000	2
bin	373000000000	1
bin	375000000000	1
bin	377000000000	3
bin	379000000000	1
bin	381000000000	1
bin	383000000000	2
bin	385000000000	2
bin	387000000000	2
bin	389000000000	2
bin	391000000000	2
bin	393000000000	0
bin	395000000000	4
bin	397000000000	2
bin	399000000000	3
bin	401000000000	3
bin	403000000000	2
bin	405000000000	1
bin	407000000000	0
statistic Network.rack[7].hub "bandwidth hist"
field count 1200
field mean 306207100000
field stddev 12535332586.706
field min 267600000000
field max 342360000000
field sum 3.6744852e+014
field sqrsum 1.127037500496e+026
bin	-inf	0
bin	250000000000	0
bin	252000000000	0
bin	254000000000	0
bin	256000000000	0
bin	258000000000	0
bin	260000000000	0
bin	262000000000	0
bin	264000000000	0
bin	266000000000	1
bin	268000000000	2
bin	270000000000	0
bin	272000000000	3
bin	274000000000	1
bin	276000000000	5
bin	278000000000	4
bin	280000000000	10
bin	282000000000	14
bin	284000000000	21
bin	286000000000	30
bin	288000000000	29
bin	290000000000	31
bin	292000000000	38
bin	294000000000	61
bin	296000000000	59
bin	298000000000	59
bin	300000000000	78
bin	302000000000	90
bin	304000000000	69
bin	306000000000	69
bin	308000000000	79
bin	310000000000	63
bin	312000000000	74
bin	314000000000	50
bin	316000000000	56
bin	318000000000	45
bin	320000000000	37
bin	322000000000	25
bin	324000000000	19
bin	326000000000	19
bin	328000000000	14
bin	330000000000	17
bin	332000000000	8
bin	334000000000	5
bin	336000000000	4
bin	338000000000	8
bin	340000000000	2
bin	342000000000	1
bin	344000000000	0
bin	346000000000	0
bin	348000000000	0
bin	350000000000	0
bin	352000000000	0
bin	354000000000	0
bin	356000000000	0
bin	358000000000	0
bin	360000000000	0
statistic Network.rack[8].hub "bandwidth hist"
field count 1200
field mean 315847500000
field stddev 23262490766.194
field min 260280000000
field max 396000000000
field sum 3.79017e+014
field sqrsum 1.20360402936e+026
bin	-inf	0
bin	260000000000	1
bin	262000000000	1
bin	264000000000	0
bin	266000000000	1
bin	268000000000	2
bin	270000000000	2
bin	272000000000	0
bin	274000000000	0
bin	276000000000	6
bin	278000000000	6
bin	280000000000	7
bin	282000000000	15
bin	284000000000	24
bin	286000000000	28
bin	288000000000	26
bin	290000000000	37
bin	292000000000	28
bin	294000000000	52
bin	296000000000	49
bin	298000000000	42
bin	300000000000	54
bin	302000000000	50
bin	304000000000	38
bin	306000000000	47
bin	308000000000	48
bin	310000000000	51
bin	312000000000	41
bin	314000000000	31
bin	316000000000	43
bin	318000000000	30
bin	320000000000	30
bin	322000000000	31
bin	324000000000	38
bin	326000000000	31
bin	328000000000	34
bin	330000000000	24
bin	332000000000	19
bin	334000000000	25
bin	336000000000	6
bin	338000000000	19
bin	340000000000	15
bin	342000000000	14
bin	344000000000	14
bin	346000000000	7
bin	348000000000	7
bin	350000000000	6
bin	352000000000	12
bin	354000000000	16
bin	356000000000	12
bin	358000000000	15
bin	360000000000	5
bin	362000000000	4
bin	364000000000	6
bin	366000000000	11
bin	368000000000	6
bin	370000000000	5
bin	372000000000	5
bin	374000000000	6
bin	376000000000	0
bin	378000000000	2
bin	380000000000	4
bin	382000000000	4
bin	384000000000	3
bin	386000000000	0
bin	388000000000	2
bin	390000000000	1
bin	392000000000	0
bin	394000000000	0
bin	396000000000	1
bin	398000000000	0
statistic Network.rack[9].hub "bandwidth hist"
field count 1200
field mean 321898900000
field stddev 20524319197.533
field min 267480000000
field max 391560000000
field sum 3.8627868e+014
field sqrsum 1.24847758152e+026
bin	-inf	0
bin	248000000000	0
bin	250000000000	0
bin	252000000000	0
bin	254000000000	0
bin	256000000000	0
bin	258000000000	0
bin	260000000000	0
bin	262000000000	0
bin	264000000000	0
bin	266000000000	1
bin	268000000000	0
bin	270000000000	0
bin	272000000000	0
bin	274000000000	2
bin	276000000000	0
bin	278000000000	4
bin	280000000000	3
bin	282000000000	6
bin	284000000000	7
bin	286000000000	13
bin	288000000000	15
bin	290000000000	22
bin	292000000000	15
bin	294000000000	25
bin	296000000000	26
bin	298000000000	37
bin	300000000000	34
bin	302000000000	38
bin	304000000000	42
bin	306000000000	56
bin	308000000000	44
bin	310000000000	49
bin	312000000000	42
bin	314000000000	38
bin	316000000000	35
bin	318000000000	33
bin	320000000000	38
bin	322000000000	31
bin	324000000000	35
bin	326000000000	40
bin	328000000000	46
bin	330000000000	38
bin	332000000000	50
bin	334000000000	38
bin	336000000000	29
bin	338000000000	37
bin	340000000000	25
bin	342000000000	30
bin	344000000000	20
bin	346000000000	23
bin	348000000000	24
bin	350000000000	10
bin	352000000000	19
bin	354000000000	15
bin	356000000000	7
bin	358000000000	14
bin	360000000000	6
bin	362000000000	13
bin	364000000000	1
bin	366000000000	4
bin	368000000000	4
bin	370000000000	1
bin	372000000000	5
bin	374000000000	3
bin	376000000000	1
bin	378000000000	1
bin	380000000000	1
bin	382000000000	0
bin	384000000000	0
bin	386000000000	0
bin	388000000000	2
bin	390000000000	2
bin	392000000000	0
scalar Network.tor[0] "Bandwidth: " 0
statistic Network.tor[0] "flow count"
field count 1200
field mean 659.10666666667
field stddev 19.553914830793
field min 594
field max 712
field sum 790928
field sqrsum 521764362
bin	-inf	0
bin	594	1
bin	596	0
bin	598	1
bin	600	2
bin	602	0
bin	604	2
bin	606	6
bin	608	2
bin	610	5
bin	612	4
bin	614	7
bin	616	2
bin	618	9
bin	620	8
bin	622	10
bin	624	15
bin	626	11
bin	628	6
bin	630	21
bin	632	15
bin	634	28
bin	636	16
bin	638	25
bin	640	24
bin	642	32
bin	644	25
bin	646	32
bin	648	31
bin	650	52
bin	652	43
bin	654	40
bin	656	47
bin	658	32
bin	660	46
bin	662	62
bin	664	47
bin	666	64
bin	668	47
bin	670	45
bin	672	59
bin	674	39
bin	676	41
bin	678	28
bin	680	25
bin	682	37
bin	684	23
bin	686	15
bin	688	15
bin	690	14
bin	692	7
bin	694	7
bin	696	10
bin	698	4
bin	700	4
bin	702	2
bin	704	2
bin	706	2
bin	708	0
bin	710	0
bin	712	1
bin	714	0
statistic Network.tor[0] cache_occupancy
field count 1200
field mean 300
field stddev 0
field min 300
field max 300
field sum 360000
field sqrsum 108000000
bin	-inf	0
bin	299	0
bin	300	1200
bin	301	0
statistic Network.tor[0] activity_time_of_a_rule_A
field count 121531
field mean 0.00012889812436885
field stddev 0.00056182315427404
field min 0
field max 0.025088628207
field sum 15.665117952671
field sqrsum 0.040379572366246
bin	-inf	0
bin	0	112368
bin	0.00048	3753
bin	0.00096	2171
bin	0.00144	1187
bin	0.00192	687
bin	0.0024	442
bin	0.00288	278
bin	0.00336	180
bin	0.00384	110
bin	0.00432	80
bin	0.0048	58
bin	0.00528	45
bin	0.00576	30
bin	0.00624	24
bin	0.00672	22
bin	0.0072	11
bin	0.00768	16
bin	0.00816	10
bin	0.00864	13
bin	0.00912	7
bin	0.0096	5
bin	0.01008	7
bin	0.01056	5
bin	0.01104	3
bin	0.01152	1
bin	0.012	5
bin	0.01248	2
bin	0.01296	1
bin	0.01344	1
bin	0.01392	0
bin	0.0144	0
bin	0.01488	0
bin	0.01536	0
bin	0.01584	2
bin	0.01632	1
bin	0.0168	1
bin	0.01728	1
bin	0.01776	1
bin	0.01824	0
bin	0.01872	0
bin	0.0192	0
bin	0.01968	0
bin	0.02016	0
bin	0.02064	1
bin	0.02112	0
bin	0.0216	0
bin	0.02208	1
bin	0.02256	0
bin	0.02304	0
bin	0.02352	0
bin	0.024	0
bin	0.02448	0
bin	0.02496	1
bin	0.02544	0
statistic Network.tor[0] activity_time_of_a_rule_B
field count 496518
field mean 1.819271841581e-005
field stddev 9.2003673894072e-005
field min 0
field max 0.00397728031
field sum 9.0330121623809
field sqrsum 0.0043671905851773
bin	-inf	0
bin	0	462694
bin	5.12e-005	8323
bin	0.0001024	5637
bin	0.0001536	4710
bin	0.0002048	3292
bin	0.000256	2747
bin	0.0003072	1923
bin	0.0003584	1674
bin	0.0004096	1016
bin	0.0004608	932
bin	0.000512	652
bin	0.0005632	527
bin	0.0006144	448
bin	0.0006656	330
bin	0.0007168	248
bin	0.000768	223
bin	0.0008192	182
bin	0.0008704	139
bin	0.0009216	102
bin	0.0009728	101
bin	0.001024	79
bin	0.0010752	58
bin	0.0011264	75
bin	0.0011776	42
bin	0.0012288	47
bin	0.00128	45
bin	0.0013312	43
bin	0.0013824	25
bin	0.0014336	30
bin	0.0014848	17
bin	0.001536	25
bin	0.0015872	10
bin	0.0016384	6
bin	0.0016896	12
bin	0.0017408	16
bin	0.001792	8
bin	0.0018432	4
bin	0.0018944	8
bin	0.0019456	7
bin	0.0019968	3
bin	0.002048	4
bin	0.0020992	6
bin	0.0021504	6
bin	0.0022016	2
bin	0.0022528	4
bin	0.002304	3
bin	0.0023552	5
bin	0.0024064	4
bin	0.0024576	2
bin	0.0025088	0
bin	0.00256	4
bin	0.0026112	2
bin	0.0026624	0
bin	0.0027136	3
bin	0.0027648	0
bin	0.002816	0
bin	0.0028672	1
bin	0.0029184	1
bin	0.0029696	0
bin	0.0030208	2
bin	0.003072	1
bin	0.0031232	1
bin	0.0031744	1
bin	0.0032256	2
bin	0.0032768	0
bin	0.003328	0
bin	0.0033792	0
bin	0.0034304	0
bin	0.0034816	2
bin	0.0035328	0
bin	0.003584	0
bin	0.0036352	0
bin	0.0036864	0
bin	0.0037376	0
bin	0.0037888	0
bin	0.00384	0
bin	0.0038912	1
bin	0.0039424	1
bin	0.0039936	0
statistic Network.tor[0] bandwidth_histogram
field count 1200
field mean 319.2008
field stddev 18.726245813349
field min 270.84
field max 384.6
field sum 383040.96
field sqrsum 122687436.9312
bin	-inf	0
bin	270	1
bin	272	0
bin	274	1
bin	276	2
bin	278	7
bin	280	8
bin	282	7
bin	284	12
bin	286	11
bin	288	10
bin	290	14
bin	292	22
bin	294	15
bin	296	25
bin	298	43
bin	300	41
bin	302	22
bin	304	38
bin	306	48
bin	308	47
bin	310	61
bin	312	53
bin	314	53
bin	316	59
bin	318	72
bin	320	62
bin	322	47
bin	324	42
bin	326	32
bin	328	31
bin	330	38
bin	332	35
bin	334	26
bin	336	23
bin	338	24
bin	340	22
bin	342	19
bin	344	17
bin	346	13
bin	348	13
bin	350	13
bin	352	14
bin	354	10
bin	356	10
bin	358	8
bin	360	7
bin	362	2
bin	364	8
bin	366	1
bin	368	1
bin	370	1
bin	372	4
bin	374	1
bin	376	1
bin	378	0
bin	380	1
bin	382	0
bin	384	2
bin	386	0
scalar Network.tor[0] "cache_content_by_app: " 0.61965811965812
scalar Network.tor[1] "Bandwidth: " 0
statistic Network.tor[1] "flow count"
field count 1200
field mean 626.92833333333
field stddev 15.077056363208
field min 567
field max 680
field sum 752314
field sqrsum 471919516
bin	-inf	0
bin	548	0
bin	550	0
bin	552	0
bin	554	0
bin	556	0
bin	558	0
bin	560	0
bin	562	0
bin	564	0
bin	566	1
bin	568	0
bin	570	0
bin	572	0
bin	574	0
bin	576	0
bin	578	0
bin	580	1
bin	582	1
bin	584	4
bin	586	1
bin	588	5
bin	590	2
bin	592	3
bin	594	6
bin	596	11
bin	598	13
bin	600	15
bin	602	24
bin	604	13
bin	606	24
bin	608	24
bin	610	32
bin	612	34
bin	614	44
bin	616	45
bin	618	49
bin	620	55
bin	622	66
bin	624	59
bin	626	75
bin	628	70
bin	630	71
bin	632	62
bin	634	51
bin	636	58
bin	638	51
bin	640	28
bin	642	37
bin	644	34
bin	646	35
bin	648	19
bin	650	23
bin	652	10
bin	654	8
bin	656	15
bin	658	6
bin	660	7
bin	662	1
bin	664	1
bin	666	2
bin	668	3
bin	670	0
bin	672	0
bin	674	0
bin	676	0
bin	678	0
bin	680	1
bin	682	0
statistic Network.tor[1] cache_occupancy
field count 1200
field mean 300
field stddev 0
field min 300
field max 300
field sum 360000
field sqrsum 108000000
bin	-inf	0
bin	299	0
bin	300	1200
bin	301	0
statistic Network.tor[1] activity_time_of_a_rule_A
field count 117535
field mean 0.0001313189169305
field stddev 0.00064661126990106
field min 0
field max 0.025422453096
field sum 15.434568901426
field sqrsum 0.051168537267653
bin	-inf	0
bin	0	108477
bin	0.00032	2292
bin	0.00064	1583
bin	0.00096	1274
bin	0.00128	864
bin	0.0016	655
bin	0.00192	509
bin	0.00224	384
bin	0.00256	287
bin	0.00288	211
bin	0.0032	168
bin	0.00352	133
bin	0.00384	108
bin	0.00416	76
bin	0.00448	78
bin	0.0048	58
bin	0.00512	42
bin	0.00544	63
bin	0.00576	43
bin	0.00608	25
bin	0.0064	24
bin	0.00672	21
bin	0.00704	12
bin	0.00736	14
bin	0.00768	19
bin	0.008	9
bin	0.00832	15
bin	0.00864	6
bin	0.00896	10
bin	0.00928	9
bin	0.0096	6
bin	0.00992	4
bin	0.01024	10
bin	0.01056	4
bin	0.01088	6
bin	0.0112	5
bin	0.01152	4
bin	0.01184	1
bin	0.01216	1
bin	0.01248	2
bin	0.0128	2
bin	0.01312	1
bin	0.01344	0
bin	0.01376	1
bin	0.01408	1
bin	0.0144	2
bin	0.01472	0
bin	0.01504	1
bin	0.01536	2
bin	0.01568	3
bin	0.016	0
bin	0.01632	0
bin	0.01664	1
bin	0.01696	3
bin	0.01728	0
bin	0.0176	1
bin	0.01792	0
bin	0.01824	0
bin	0.01856	1
bin	0.01888	0
bin	0.0192	0
bin	0.01952	0
bin	0.01984	0
bin	0.02016	1
bin	0.02048	0
bin	0.0208	0
bin	0.02112	0
bin	0.02144	0
bin	0.02176	1
bin	0.02208	0
bin	0.0224	0
bin	0.02272	0
bin	0.02304	0
bin	0.02336	1
bin	0.02368	0
bin	0.024	0
bin	0.02432	0
bin	0.02464	0
bin	0.02496	0
bin	0.02528	1
bin	0.0256	0
statistic Network.tor[1] activity_time_of_a_rule_B
field count 492691
field mean 1.9009336107546e-005
field stddev 9.7400093486836e-005
field min 0
field max 0.004547013991
field sum 9.365728816163
field sqrsum 0.0048520770438565
bin	-inf	0
bin	-0.5	0
bin	-0.48	0
bin	-0.46	0
bin	-0.44	0
bin	-0.42	0
bin	-0.4	0
bin	-0.38	0
bin	-0.36	0
bin	-0.34	0
bin	-0.32	0
bin	-0.3	0
bin	-0.28	0
bin	-0.26	0
bin	-0.24	0
bin	-0.22	0
bin	-0.2	0
bin	-0.18	0
bin	-0.16	0
bin	-0.14	0
bin	-0.12	0
bin	-0.1	0
bin	-0.08	0
bin	-0.06	0
bin	-0.04	0
bin	-0.02	0
bin	0	492691
bin	0.02	0
bin	0.04	0
bin	0.06	0
bin	0.08	0
bin	0.1	0
bin	0.12	0
bin	0.14	0
bin	0.16	0
bin	0.18	0
bin	0.2	0
bin	0.22	0
bin	0.24	0
bin	0.26	0
bin	0.28	0
bin	0.3	0
bin	0.32	0
bin	0.34	0
bin	0.36	0
bin	0.38	0
bin	0.4	0
bin	0.42	0
bin	0.44	0
bin	0.46	0
bin	0.48	0
bin	0.5	0
statistic Network.tor[1] bandwidth_histogram
field count 1200
field mean 308.0514
field stddev 14.425316015891
field min 261
field max 357.36
field sum 369661.68
field sqrsum 114124297.6512
bin	-inf	0
bin	257	0
bin	259	0
bin	261	1
bin	263	0
bin	265	0
bin	267	1
bin	269	0
bin	271	2
bin	273	4
bin	275	5
bin	277	3
bin	279	4
bin	281	16
bin	283	20
bin	285	16
bin	287	33
bin	289	31
bin	291	30
bin	293	41
bin	295	55
bin	297	56
bin	299	72
bin	301	68
bin	303	71
bin	305	75
bin	307	74
bin	309	56
bin	311	62
bin	313	49
bin	315	49
bin	317	43
bin	319	37
bin	321	33
bin	323	34
bin	325	33
bin	327	24
bin	329	25
bin	331	17
bin	333	9
bin	335	14
bin	337	12
bin	339	10
bin	341	2
bin	343	2
bin	345	3
bin	347	1
bin	349	1
bin	351	2
bin	353	1
bin	355	1
bin	357	2
bin	359	0
scalar Network.tor[1] "cache_content_by_app: " 0.56896551724138
scalar Network.tor[2] "Bandwidth: " 0
statistic Network.tor[2] "flow count"
field count 1200
field mean 636.595
field stddev 18.620953921254
field min 586
field max 697
field sum 763914
field sqrsum 486719574
bin	-inf	0
bin	586	2
bin	588	0
bin	590	2
bin	592	2
bin	594	6
bin	596	5
bin	598	10
bin	600	9
bin	602	3
bin	604	9
bin	606	14
bin	608	17
bin	610	23
bin	612	27
bin	614	29
bin	616	19
bin	618	24
bin	620	47
bin	622	42
bin	624	40
bin	626	37
bin	628	41
bin	630	56
bin	632	64
bin	634	56
bin	636	65
bin	638	52
bin	640	48
bin	642	53
bin	644	47
bin	646	43
bin	648	46
bin	650	34
bin	652	34
bin	654	22
bin	656	27
bin	658	17
bin	660	21
bin	662	17
bin	664	11
bin	666	10
bin	668	9
bin	670	3
bin	672	6
bin	674	9
bin	676	5
bin	678	7
bin	680	8
bin	682	6
bin	684	7
bin	686	4
bin	688	2
bin	690	1
bin	692	1
bin	694	0
bin	696	1
bin	698	0
bin	700	0
bin	702	0
bin	704	0
bin	706	0
bin	708	0
bin	710	0
bin	712	0
bin	714	0
bin	716	0
bin	718	0
bin	720	0
statistic Network.tor[2] cache_occupancy
field count 1200
field mean 300
field stddev 0
field min 300
field max 300
field sum 360000
field sqrsum 108000000
bin	-inf	0
bin	299	0
bin	300	1200
bin	301	0
statistic Network.tor[2] activity_time_of_a_rule_A
field count 119177
field mean 0.00013170540029621
field stddev 0.00061053924664285
field min 0
field max 0.029646468742
field sum 15.696254491101
field sqrsum 0.046491109350374
bin	-inf	0
bin	-0.5	0
bin	-0.48	0
bin	-0.46	0
bin	-0.44	0
bin	-0.42	0
bin	-0.4	0
bin	-0.38	0
bin	-0.36	0
bin	-0.34	0
bin	-0.32	0
bin	-0.3	0
bin	-0.28	0
bin	-0.26	0
bin	-0.24	0
bin	-0.22	0
bin	-0.2	0
bin	-0.18	0
bin	-0.16	0
bin	-0.14	0
bin	-0.12	0
bin	-0.1	0
bin	-0.08	0
bin	-0.06	0
bin	-0.04	0
bin	-0.02	0
bin	0	119176
bin	0.02	1
bin	0.04	0
bin	0.06	0
bin	0.08	0
bin	0.1	0
bin	0.12	0
bin	0.14	0
bin	0.16	0
bin	0.18	0
bin	0.2	0
bin	0.22	0
bin	0.24	0
bin	0.26	0
bin	0.28	0
bin	0.3	0
bin	0.32	0
bin	0.34	0
bin	0.36	0
bin	0.38	0
bin	0.4	0
bin	0.42	0
bin	0.44	0
bin	0.46	0
bin	0.48	0
bin	0.5	0
statistic Network.tor[2] activity_time_of_a_rule_B
field count 494362
field mean 1.8367018377074e-005
field stddev 9.6049844043492e-005
field min 0
field max 0.00593101407
field sum 9.079955938927
field sqrsum 0.0047275349844254
bin	-inf	0
bin	-0.5	0
bin	-0.48	0
bin	-0.46	0
bin	-0.44	0
bin	-0.42	0
bin	-0.4	0
bin	-0.38	0
bin	-0.36	0
bin	-0.34	0
bin	-0.32	0
bin	-0.3	0
bin	-0.28	0
bin	-0.26	0
bin	-0.24	0
bin	-0.22	0
bin	-0.2	0
bin	-0.18	0
bin	-0.16	0
bin	-0.14	0
bin	-0.12	0
bin	-0.1	0
bin	-0.08	0
bin	-0.06	0
bin	-0.04	0
bin	-0.02	0
bin	0	494362
bin	0.02	0
bin	0.04	0
bin	0.06	0
bin	0.08	0
bin	0.1	0
bin	0.12	0
bin	0.14	0
bin	0.16	0
bin	0.18	0
bin	0.2	0
bin	0.22	0
bin	0.24	0
bin	0.26	0
bin	0.28	0
bin	0.3	0
bin	0.32	0
bin	0.34	0
bin	0.36	0
bin	0.38	0
bin	0.4	0
bin	0.42	0
bin	0.44	0
bin	0.46	0
bin	0.48	0
bin	0.5	0
statistic Network.tor[2] bandwidth_histogram
field count 1200
field mean 323.7234
field stddev 19.970694771292
field min 268.44
field max 395.52
field sum 388468.08
field sqrsum 126234403.2
bin	-inf	0
bin	268	1
bin	270	0
bin	272	0
bin	274	0
bin	276	1
bin	278	3
bin	280	6
bin	282	6
bin	284	10
bin	286	7
bin	288	11
bin	290	13
bin	292	18
bin	294	22
bin	296	30
bin	298	29
bin	300	27
bin	302	22
bin	304	26
bin	306	49
bin	308	32
bin	310	38
bin	312	43
bin	314	42
bin	316	50
bin	318	51
bin	320	41
bin	322	40
bin	324	45
bin	326	50
bin	328	33
bin	330	44
bin	332	38
bin	334	37
bin	336	38
bin	338	32
bin	340	32
bin	342	29
bin	344	34
bin	346	26
bin	348	27
bin	350	22
bin	352	13
bin	354	15
bin	356	13
bin	358	12
bin	360	8
bin	362	8
bin	364	6
bin	366	6
bin	368	4
bin	370	1
bin	372	0
bin	374	1
bin	376	3
bin	378	2
bin	380	1
bin	382	0
bin	384	0
bin	386	1
bin	388	0
bin	390	0
bin	392	0
bin	394	1
bin	396	0
scalar Network.tor[2] "cache_content_by_app: " 0.61344537815126
scalar Network.tor[3] "Bandwidth: " 0
statistic Network.tor[3] "flow count"
field count 1200
field mean 636.8125
field stddev 17.308099809507
field min 590
field max 691
field sum 764175
field sqrsum 486995377
bin	-inf	0
bin	590	2
bin	592	0
bin	594	3
bin	596	4
bin	598	2
bin	600	8
bin	602	9
bin	604	9
bin	606	7
bin	608	21
bin	610	19
bin	612	23
bin	614	33
bin	616	34
bin	618	27
bin	620	32
bin	622	46
bin	624	43
bin	626	38
bin	628	48
bin	630	53
bin	632	51
bin	634	54
bin	636	56
bin	638	68
bin	640	50
bin	642	51
bin	644	51
bin	646	41
bin	648	36
bin	650	42
bin	652	32
bin	654	23
bin	656	27
bin	658	23
bin	660	38
bin	662	13
bin	664	17
bin	666	18
bin	668	11
bin	670	6
bin	672	8
bin	674	9
bin	676	4
bin	678	5
bin	680	2
bin	682	1
bin	684	0
bin	686	1
bin	688	0
bin	690	1
bin	692	0
statistic Network.tor[3] cache_occupancy
field count 1200
field mean 300
field stddev 0
field min 300
field max 300
field sum 360000
field sqrsum 108000000
bin	-inf	0
bin	299	0
bin	300	1200
bin	301	0
statistic Network.tor[3] activity_time_of_a_rule_A
field count 120177
field mean 0.00013356214056498
field stddev 0.00060877980911337
field min 0
field max 0.034482738228
field sum 16.051097366678
field sqrsum 0.046682589503456
bin	-inf	0
bin	-0.5	0
bin	-0.48	0
bin	-0.46	0
bin	-0.44	0
bin	-0.42	0
bin	-0.4	0
bin	-0.38	0
bin	-0.36	0
bin	-0.34	0
bin	-0.32	0
bin	-0.3	0
bin	-0.28	0
bin	-0.26	0
bin	-0.24	0
bin	-0.22	0
bin	-0.2	0
bin	-0.18	0
bin	-0.16	0
bin	-0.14	0
bin	-0.12	0
bin	-0.1	0
bin	-0.08	0
bin	-0.06	0
bin	-0.04	0
bin	-0.02	0
bin	0	120174
bin	0.02	3
bin	0.04	0
bin	0.06	0
bin	0.08	0
bin	0.1	0
bin	0.12	0
bin	0.14	0
bin	0.16	0
bin	0.18	0
bin	0.2	0
bin	0.22	0
bin	0.24	0
bin	0.26	0
bin	0.28	0
bin	0.3	0
bin	0.32	0
bin	0.34	0
bin	0.36	0
bin	0.38	0
bin	0.4	0
bin	0.42	0
bin	0.44	0
bin	0.46	0
bin	0.48	0
bin	0.5	0
statistic Network.tor[3] activity_time_of_a_rule_B
field count 494203
field mean 1.7767416586008e-005
field stddev 9.2649999291872e-005
field min 0
field max 0.005159340204
field sum 8.780710579055
field sqrsum 0.004398251565477
bin	-inf	0
bin	-0.5	0
bin	-0.48	0
bin	-0.46	0
bin	-0.44	0
bin	-0.42	0
bin	-0.4	0
bin	-0.38	0
bin	-0.36	0
bin	-0.34	0
bin	-0.32	0
bin	-0.3	0
bin	-0.28	0
bin	-0.26	0
bin	-0.24	0
bin	-0.22	0
bin	-0.2	0
bin	-0.18	0
bin	-0.16	0
bin	-0.14	0
bin	-0.12	0
bin	-0.1	0
bin	-0.08	0
bin	-0.06	0
bin	-0.04	0
bin	-0.02	0
bin	0	494203
bin	0.02	0
bin	0.04	0
bin	0.06	0
bin	0.08	0
bin	0.1	0
bin	0.12	0
bin	0.14	0
bin	0.16	0
bin	0.18	0
bin	0.2	0
bin	0.22	0
bin	0.24	0
bin	0.26	0
bin	0.28	0
bin	0.3	0
bin	0.32	0
bin	0.34	0
bin	0.36	0
bin	0.38	0
bin	0.4	0
bin	0.42	0
bin	0.44	0
bin	0.46	0
bin	0.48	0
bin	0.5	0
statistic Network.tor[3] bandwidth_histogram
field count 1200
field mean 324.7876
field stddev 19.143826454403
field min 282.36
field max 414.48
field sum 389745.12
field sqrsum 127023798.96
bin	-inf	0
bin	281	1
bin	283	5
bin	285	4
bin	287	7
bin	289	14
bin	291	10
bin	293	11
bin	295	16
bin	297	21
bin	299	31
bin	301	24
bin	303	26
bin	305	30
bin	307	39
bin	309	44
bin	311	47
bin	313	53
bin	315	40
bin	317	51
bin	319	39
bin	321	53
bin	323	56
bin	325	47
bin	327	48
bin	329	53
bin	331	47
bin	333	57
bin	335	56
bin	337	35
bin	339	37
bin	341	34
bin	343	32
bin	345	24
bin	347	18
bin	349	11
bin	351	14
bin	353	11
bin	355	6
bin	357	4
bin	359	3
bin	361	3
bin	363	3
bin	365	6
bin	367	0
bin	369	1
bin	371	1
bin	373	4
bin	375	3
bin	377	1
bin	379	1
bin	381	2
bin	383	0
bin	385	3
bin	387	1
bin	389	2
bin	391	1
bin	393	1
bin	395	1
bin	397	2
bin	399	0
bin	401	1
bin	403	0
bin	405	0
bin	407	0
bin	409	1
bin	411	2
bin	413	1
bin	415	0
scalar Network.tor[3] "cache_content_by_app: " 0.61087866108787
scalar Network.tor[4] "Bandwidth: " 0
statistic Network.tor[4] "flow count"
field count 1200
field mean 608.0425
field stddev 27.413870467247
field min 532
field max 673
field sum 729651
field sqrsum 444559891
bin	-inf	0
bin	532	1
bin	534	0
bin	536	0
bin	538	2
bin	540	2
bin	542	3
bin	544	1
bin	546	2
bin	548	6
bin	550	5
bin	552	10
bin	554	6
bin	556	8
bin	558	15
bin	560	7
bin	562	10
bin	564	11
bin	566	12
bin	568	11
bin	570	11
bin	572	18
bin	574	17
bin	576	12
bin	578	20
bin	580	11
bin	582	27
bin	584	19
bin	586	18
bin	588	31
bin	590	30
bin	592	25
bin	594	33
bin	596	34
bin	598	39
bin	600	32
bin	602	46
bin	604	43
bin	606	27
bin	608	38
bin	610	28
bin	612	28
bin	614	30
bin	616	27
bin	618	24
bin	620	21
bin	622	18
bin	624	23
bin	626	20
bin	628	25
bin	630	30
bin	632	20
bin	634	25
bin	636	30
bin	638	28
bin	640	25
bin	642	31
bin	644	28
bin	646	23
bin	648	10
bin	650	11
bin	652	9
bin	654	11
bin	656	7
bin	658	10
bin	660	2
bin	662	6
bin	664	1
bin	666	2
bin	668	3
bin	670	0
bin	672	1
bin	674	0
bin	676	0
bin	678	0
bin	680	0
bin	682	0
bin	684	0
bin	686	0
statistic Network.tor[4] cache_occupancy
field count 1200
field mean 300
field stddev 0
field min 300
field max 300
field sum 360000
field sqrsum 108000000
bin	-inf	0
bin	299	0
bin	300	1200
bin	301	0
statistic Network.tor[4] activity_time_of_a_rule_A
field count 114627
field mean 0.00012563080944869
field stddev 0.00072212175853226
field min 0
field max 0.054378024675
field sum 14.400682794675
field sqrsum 0.061582024384896
bin	-inf	0
bin	-0.5	0
bin	-0.48	0
bin	-0.46	0
bin	-0.44	0
bin	-0.42	0
bin	-0.4	0
bin	-0.38	0
bin	-0.36	0
bin	-0.34	0
bin	-0.32	0
bin	-0.3	0
bin	-0.28	0
bin	-0.26	0
bin	-0.24	0
bin	-0.22	0
bin	-0.2	0
bin	-0.18	0
bin	-0.16	0
bin	-0.14	0
bin	-0.12	0
bin	-0.1	0
bin	-0.08	0
bin	-0.06	0
bin	-0.04	0
bin	-0.02	0
bin	0	114619
bin	0.02	7
bin	0.04	1
bin	0.06	0
bin	0.08	0
bin	0.1	0
bin	0.12	0
bin	0.14	0
bin	0.16	0
bin	0.18	0
bin	0.2	0
bin	0.22	0
bin	0.24	0
bin	0.26	0
bin	0.28	0
bin	0.3	0
bin	0.32	0
bin	0.34	0
bin	0.36	0
bin	0.38	0
bin	0.4	0
bin	0.42	0
bin	0.44	0
bin	0.46	0
bin	0.48	0
bin	0.5	0
statistic Network.tor[4] activity_time_of_a_rule_B
field count 490378
field mean 2.0982898313171e-005
field stddev 0.00010997561035504
field min 0
field max 0.006002277062
field sum 10.289551709016
field sqrsum 0.0061468353822976
bin	-inf	0
bin	-0.5	0
bin	-0.48	0
bin	-0.46	0
bin	-0.44	0
bin	-0.42	0
bin	-0.4	0
bin	-0.38	0
bin	-0.36	0
bin	-0.34	0
bin	-0.32	0
bin	-0.3	0
bin	-0.28	0
bin	-0.26	0
bin	-0.24	0
bin	-0.22	0
bin	-0.2	0
bin	-0.18	0
bin	-0.16	0
bin	-0.14	0
bin	-0.12	0
bin	-0.1	0
bin	-0.08	0
bin	-0.06	0
bin	-0.04	0
bin	-0.02	0
bin	0	490378
bin	0.02	0
bin	0.04	0
bin	0.06	0
bin	0.08	0
bin	0.1	0
bin	0.12	0
bin	0.14	0
bin	0.16	0
bin	0.18	0
bin	0.2	0
bin	0.22	0
bin	0.24	0
bin	0.26	0
bin	0.28	0
bin	0.3	0
bin	0.32	0
bin	0.34	0
bin	0.36	0
bin	0.38	0
bin	0.4	0
bin	0.42	0
bin	0.44	0
bin	0.46	0
bin	0.48	0
bin	0.5	0
statistic Network.tor[4] bandwidth_histogram
field count 1200
field mean 303.5928
field stddev 18.444436067406
field min 264.24
field max 379.44
field sum 364311.36
field sqrsum 111010202.3232
bin	-inf	0
bin	248	0
bin	250	0
bin	252	0
bin	254	0
bin	256	0
bin	258	0
bin	260	0
bin	262	0
bin	264	6
bin	266	4
bin	268	3
bin	270	9
bin	272	11
bin	274	15
bin	276	13
bin	278	26
bin	280	24
bin	282	30
bin	284	36
bin	286	48
bin	288	40
bin	290	50
bin	292	46
bin	294	53
bin	296	87
bin	298	53
bin	300	57
bin	302	66
bin	304	59
bin	306	52
bin	308	48
bin	310	40
bin	312	49
bin	314	47
bin	316	27
bin	318	20
bin	320	18
bin	322	17
bin	324	23
bin	326	14
bin	328	15
bin	330	13
bin	332	7
bin	334	9
bin	336	8
bin	338	11
bin	340	4
bin	342	3
bin	344	2
bin	346	5
bin	348	3
bin	350	0
bin	352	1
bin	354	0
bin	356	4
bin	358	3
bin	360	3
bin	362	3
bin	364	1
bin	366	4
bin	368	2
bin	370	3
bin	372	3
bin	374	1
bin	376	0
bin	378	1
bin	380	0
scalar Network.tor[4] "cache_content_by_app: " 0.55793991416309
scalar Network.tor[5] "Bandwidth: " 0
statistic Network.tor[5] "flow count"
field count 1200
field mean 628.49583333333
field stddev 15.502373548168
field min 577
field max 680
field sum 754195
field sqrsum 474296563
bin	-inf	0
bin	576	1
bin	578	0
bin	580	0
bin	582	1
bin	584	1
bin	586	4
bin	588	3
bin	590	3
bin	592	2
bin	594	8
bin	596	6
bin	598	12
bin	600	14
bin	602	11
bin	604	17
bin	606	18
bin	608	18
bin	610	32
bin	612	39
bin	614	50
bin	616	47
bin	618	45
bin	620	65
bin	622	61
bin	624	55
bin	626	69
bin	628	66
bin	630	58
bin	632	50
bin	634	48
bin	636	44
bin	638	55
bin	640	42
bin	642	43
bin	644	36
bin	646	33
bin	648	36
bin	650	31
bin	652	14
bin	654	22
bin	656	12
bin	658	6
bin	660	3
bin	662	8
bin	664	3
bin	666	1
bin	668	2
bin	670	2
bin	672	1
bin	674	0
bin	676	0
bin	678	1
bin	680	1
bin	682	0
bin	684	0
bin	686	0
bin	688	0
bin	690	0
bin	692	0
bin	694	0
bin	696	0
bin	698	0
statistic Network.tor[5] cache_occupancy
field count 1200
field mean 300
field stddev 0
field min 300
field max 300
field sum 360000
field sqrsum 108000000
bin	-inf	0
bin	299	0
bin	300	1200
bin	301	0
statistic Network.tor[5] activity_time_of_a_rule_A
field count 118277
field mean 0.00013042557170101
field stddev 0.00060838523093854
field min 0
field max 0.024686593499
field sum 15.42634534408
field sqrsum 0.045789792033834
bin	-inf	0
bin	0	109469
bin	0.000384	2616
bin	0.000768	1733
bin	0.001152	1260
bin	0.001536	821
bin	0.00192	594
bin	0.002304	402
bin	0.002688	293
bin	0.003072	239
bin	0.003456	189
bin	0.00384	136
bin	0.004224	120
bin	0.004608	79
bin	0.004992	54
bin	0.005376	46
bin	0.00576	41
bin	0.006144	32
bin	0.006528	22
bin	0.006912	17
bin	0.007296	12
bin	0.00768	22
bin	0.008064	10
bin	0.008448	17
bin	0.008832	7
bin	0.009216	4
bin	0.0096	3
bin	0.009984	4
bin	0.010368	4
bin	0.010752	3
bin	0.011136	6
bin	0.01152	4
bin	0.011904	4
bin	0.012288	2
bin	0.012672	2
bin	0.013056	2
bin	0.01344	0
bin	0.013824	0
bin	0.014208	1
bin	0.014592	0
bin	0.014976	1
bin	0.01536	0
bin	0.015744	0
bin	0.016128	0
bin	0.016512	0
bin	0.016896	0
bin	0.01728	1
bin	0.017664	1
bin	0.018048	0
bin	0.018432	1
bin	0.018816	1
bin	0.0192	0
bin	0.019584	0
bin	0.019968	1
bin	0.020352	0
bin	0.020736	0
bin	0.02112	0
bin	0.021504	0
bin	0.021888	0
bin	0.022272	0
bin	0.022656	0
bin	0.02304	0
bin	0.023424	0
bin	0.023808	0
bin	0.024192	0
bin	0.024576	1
bin	0.02496	0
statistic Network.tor[5] activity_time_of_a_rule_B
field count 493161
field mean 1.8962843521526e-005
field stddev 9.7919091494761e-005
field min 0
field max 0.005457797094
field sum 9.3517348739191
field sqrsum 0.0049058267890512
bin	-inf	0
bin	-0.5	0
bin	-0.48	0
bin	-0.46	0
bin	-0.44	0
bin	-0.42	0
bin	-0.4	0
bin	-0.38	0
bin	-0.36	0
bin	-0.34	0
bin	-0.32	0
bin	-0.3	0
bin	-0.28	0
bin	-0.26	0
bin	-0.24	0
bin	-0.22	0
bin	-0.2	0
bin	-0.18	0
bin	-0.16	0
bin	-0.14	0
bin	-0.12	0
bin	-0.1	0
bin	-0.08	0
bin	-0.06	0
bin	-0.04	0
bin	-0.02	0
bin	0	493161
bin	0.02	0
bin	0.04	0
bin	0.06	0
bin	0.08	0
bin	0.1	0
bin	0.12	0
bin	0.14	0
bin	0.16	0
bin	0.18	0
bin	0.2	0
bin	0.22	0
bin	0.24	0
bin	0.26	0
bin	0.28	0
bin	0.3	0
bin	0.32	0
bin	0.34	0
bin	0.36	0
bin	0.38	0
bin	0.4	0
bin	0.42	0
bin	0.44	0
bin	0.46	0
bin	0.48	0
bin	0.5	0
statistic Network.tor[5] bandwidth_histogram
field count 1200
field mean 308.1849
field stddev 21.32619716596
field min 259.32
field max 381.48
field sum 369821.88
field sqrsum 114518832.3216
bin	-inf	0
bin	258	1
bin	260	0
bin	262	0
bin	264	0
bin	266	0
bin	268	2
bin	270	6
bin	272	5
bin	274	4
bin	276	17
bin	278	22
bin	280	23
bin	282	29
bin	284	43
bin	286	39
bin	288	47
bin	290	47
bin	292	47
bin	294	46
bin	296	68
bin	298	51
bin	300	47
bin	302	58
bin	304	53
bin	306	45
bin	308	46
bin	310	33
bin	312	28
bin	314	26
bin	316	30
bin	318	30
bin	320	33
bin	322	20
bin	324	24
bin	326	17
bin	328	21
bin	330	9
bin	332	15
bin	334	22
bin	336	18
bin	338	13
bin	340	14
bin	342	10
bin	344	10
bin	346	8
bin	348	15
bin	350	6
bin	352	8
bin	354	4
bin	356	7
bin	358	7
bin	360	4
bin	362	2
bin	364	5
bin	366	3
bin	368	1
bin	370	4
bin	372	0
bin	374	3
bin	376	0
bin	378	2
bin	380	2
bin	382	0
scalar Network.tor[5] "cache_content_by_app: " 0.53813559322034
scalar Network.tor[6] "Bandwidth: " 0
statistic Network.tor[6] "flow count"
field count 1200
field mean 634.94916666667
field stddev 16.735390954428
field min 582
field max 682
field sum 761939
field sqrsum 484128341
bin	-inf	0
bin	574	0
bin	576	0
bin	578	0
bin	580	0
bin	582	1
bin	584	2
bin	586	1
bin	588	3
bin	590	4
bin	592	5
bin	594	3
bin	596	3
bin	598	6
bin	600	7
bin	602	7
bin	604	8
bin	606	17
bin	608	19
bin	610	15
bin	612	24
bin	614	24
bin	616	30
bin	618	31
bin	620	31
bin	622	31
bin	624	51
bin	626	46
bin	628	52
bin	630	70
bin	632	57
bin	634	44
bin	636	81
bin	638	52
bin	640	47
bin	642	55
bin	644	64
bin	646	43
bin	648	42
bin	650	36
bin	652	35
bin	654	21
bin	656	30
bin	658	24
bin	660	13
bin	662	11
bin	664	13
bin	666	9
bin	668	14
bin	670	6
bin	672	2
bin	674	3
bin	676	3
bin	678	1
bin	680	1
bin	682	2
bin	684	0
statistic Network.tor[6] cache_occupancy
field count 1200
field mean 300
field stddev 0
field min 300
field max 300
field sum 360000
field sqrsum 108000000
bin	-inf	0
bin	299	0
bin	300	1200
bin	301	0
statistic Network.tor[6] activity_time_of_a_rule_A
field count 119013
field mean 0.00013112853024841
field stddev 0.00061255739832408
field min 0
field max 0.025856120366
field sum 15.605999770454
field sqrsum 0.046702855914498
bin	-inf	0
bin	-0.5	0
bin	-0.48	0
bin	-0.46	0
bin	-0.44	0
bin	-0.42	0
bin	-0.4	0
bin	-0.38	0
bin	-0.36	0
bin	-0.34	0
bin	-0.32	0
bin	-0.3	0
bin	-0.28	0
bin	-0.26	0
bin	-0.24	0
bin	-0.22	0
bin	-0.2	0
bin	-0.18	0
bin	-0.16	0
bin	-0.14	0
bin	-0.12	0
bin	-0.1	0
bin	-0.08	0
bin	-0.06	0
bin	-0.04	0
bin	-0.02	0
bin	0	119008
bin	0.02	5
bin	0.04	0
bin	0.06	0
bin	0.08	0
bin	0.1	0
bin	0.12	0
bin	0.14	0
bin	0.16	0
bin	0.18	0
bin	0.2	0
bin	0.22	0
bin	0.24	0
bin	0.26	0
bin	0.28	0
bin	0.3	0
bin	0.32	0
bin	0.34	0
bin	0.36	0
bin	0.38	0
bin	0.4	0
bin	0.42	0
bin	0.44	0
bin	0.46	0
bin	0.48	0
bin	0.5	0
statistic Network.tor[6] activity_time_of_a_rule_B
field count 494379
field mean 1.8482098704122e-005
field stddev 9.5854582414784e-005
field min 0
field max 0.007132431582
field sum 9.1371614752451
field sqrsum 0.0047112689015645
bin	-inf	0
bin	0	475218
bin	0.000162	10421
bin	0.000324	4592
bin	0.000486	1995
bin	0.000648	902
bin	0.00081	489
bin	0.000972	270
bin	0.001134	154
bin	0.001296	121
bin	0.001458	54
bin	0.00162	49
bin	0.001782	25
bin	0.001944	18
bin	0.002106	17
bin	0.002268	15
bin	0.00243	9
bin	0.002592	7
bin	0.002754	8
bin	0.002916	3
bin	0.003078	1
bin	0.00324	1
bin	0.003402	0
bin	0.003564	3
bin	0.003726	1
bin	0.003888	1
bin	0.00405	1
bin	0.004212	1
bin	0.004374	0
bin	0.004536	1
bin	0.004698	0
bin	0.00486	0
bin	0.005022	0
bin	0.005184	1
bin	0.005346	0
bin	0.005508	0
bin	0.00567	0
bin	0.005832	0
bin	0.005994	0
bin	0.006156	0
bin	0.006318	0
bin	0.00648	0
bin	0.006642	0
bin	0.006804	0
bin	0.006966	0
bin	0.007128	1
bin	0.00729	0
statistic Network.tor[6] bandwidth_histogram
field count 1200
field mean 312.8733
field stddev 26.810977730816
field min 255.72
field max 407.16
field sum 375447.96
field sqrsum 118329517.6272
bin	-inf	0
bin	242	0
bin	244	0
bin	246	0
bin	248	0
bin	250	0
bin	252	0
bin	254	2
bin	256	1
bin	258	0
bin	260	4
bin	262	5
bin	264	8
bin	266	7
bin	268	12
bin	270	11
bin	272	18
bin	274	25
bin	276	15
bin	278	22
bin	280	24
bin	282	21
bin	284	34
bin	286	20
bin	288	18
bin	290	26
bin	292	36
bin	294	29
bin	296	25
bin	298	26
bin	300	38
bin	302	27
bin	304	28
bin	306	44
bin	308	41
bin	310	32
bin	312	32
bin	314	48
bin	316	48
bin	318	48
bin	320	28
bin	322	40
bin	324	37
bin	326	19
bin	328	32
bin	330	18
bin	332	22
bin	334	22
bin	336	14
bin	338	15
bin	340	14
bin	342	22
bin	344	12
bin	346	10
bin	348	17
bin	350	16
bin	352	7
bin	354	9
bin	356	10
bin	358	10
bin	360	5
bin	362	3
bin	364	2
bin	366	5
bin	368	1
bin	370	1
bin	372	3
bin	374	1
bin	376	3
bin	378	1
bin	380	0
bin	382	2
bin	384	2
bin	386	2
bin	388	1
bin	390	3
bin	392	1
bin	394	1
bin	396	4
bin	398	3
bin	400	2
bin	402	2
bin	404	2
bin	406	1
bin	408	0
scalar Network.tor[6] "cache_content_by_app: " 0.60816326530612
scalar Network.tor[7] "Bandwidth: " 0
statistic Network.tor[7] "flow count"
field count 1200
field mean 629.66
field stddev 13.978873610661
field min 593
field max 673
field sum 755592
field sqrsum 476000354
bin	-inf	0
bin	580	0
bin	582	0
bin	584	0
bin	586	0
bin	588	0
bin	590	0
bin	592	1
bin	594	4
bin	596	5
bin	598	4
bin	600	13
bin	602	7
bin	604	16
bin	606	22
bin	608	26
bin	610	26
bin	612	45
bin	614	37
bin	616	37
bin	618	42
bin	620	50
bin	622	50
bin	624	65
bin	626	62
bin	628	76
bin	630	69
bin	632	71
bin	634	70
bin	636	49
bin	638	69
bin	640	55
bin	642	38
bin	644	37
bin	646	28
bin	648	31
bin	650	27
bin	652	14
bin	654	15
bin	656	12
bin	658	10
bin	660	5
bin	662	1
bin	664	4
bin	666	2
bin	668	2
bin	670	2
bin	672	1
bin	674	0
bin	676	0
bin	678	0
bin	680	0
bin	682	0
bin	684	0
bin	686	0
bin	688	0
bin	690	0
bin	692	0
statistic Network.tor[7] cache_occupancy
field count 1200
field mean 300
field stddev 0
field min 300
field max 300
field sum 360000
field sqrsum 108000000
bin	-inf	0
bin	299	0
bin	300	1200
bin	301	0
statistic Network.tor[7] activity_time_of_a_rule_A
field count 117461
field mean 0.00012878776182633
field stddev 0.00062733246244929
field min 0
field max 0.023103519425
field sum 15.127539291882
field sqrsum 0.04817415725362
bin	-inf	0
bin	0	109874
bin	0.0004896	2651
bin	0.0009792	1572
bin	0.0014688	1015
bin	0.0019584	709
bin	0.002448	470
bin	0.0029376	310
bin	0.0034272	201
bin	0.0039168	150
bin	0.0044064	122
bin	0.004896	90
bin	0.0053856	60
bin	0.0058752	36
bin	0.0063648	42
bin	0.0068544	30
bin	0.007344	19
bin	0.0078336	14
bin	0.0083232	23
bin	0.0088128	13
bin	0.0093024	8
bin	0.009792	4
bin	0.0102816	8
bin	0.0107712	4
bin	0.0112608	13
bin	0.0117504	6
bin	0.01224	1
bin	0.0127296	3
bin	0.0132192	0
bin	0.0137088	1
bin	0.0141984	1
bin	0.014688	2
bin	0.0151776	1
bin	0.0156672	1
bin	0.0161568	0
bin	0.0166464	2
bin	0.017136	0
bin	0.0176256	2
bin	0.0181152	0
bin	0.0186048	0
bin	0.0190944	0
bin	0.019584	1
bin	0.0200736	0
bin	0.0205632	0
bin	0.0210528	0
bin	0.0215424	1
bin	0.022032	0
bin	0.0225216	0
bin	0.0230112	1
bin	0.0235008	0
statistic Network.tor[7] activity_time_of_a_rule_B
field count 492886
field mean 1.9310486031289e-005
field stddev 0.00010118565282009
field min 0
field max 0.007655001068
field sum 9.517868218018
field sqrsum 0.0052302156435501
bin	-inf	0
bin	-0.5	0
bin	-0.48	0
bin	-0.46	0
bin	-0.44	0
bin	-0.42	0
bin	-0.4	0
bin	-0.38	0
bin	-0.36	0
bin	-0.34	0
bin	-0.32	0
bin	-0.3	0
bin	-0.28	0
bin	-0.26	0
bin	-0.24	0
bin	-0.22	0
bin	-0.2	0
bin	-0.18	0
bin	-0.16	0
bin	-0.14	0
bin	-0.12	0
bin	-0.1	0
bin	-0.08	0
bin	-0.06	0
bin	-0.04	0
bin	-0.02	0
bin	0	492886
bin	0.02	0
bin	0.04	0
bin	0.06	0
bin	0.08	0
bin	0.1	0
bin	0.12	0
bin	0.14	0
bin	0.16	0
bin	0.18	0
bin	0.2	0
bin	0.22	0
bin	0.24	0
bin	0.26	0
bin	0.28	0
bin	0.3	0
bin	0.32	0
bin	0.34	0
bin	0.36	0
bin	0.38	0
bin	0.4	0
bin	0.42	0
bin	0.44	0
bin	0.46	0
bin	0.48	0
bin	0.5	0
statistic Network.tor[7] bandwidth_histogram
field count 1200
field mean 306.2041
field stddev 12.555099121522
field min 268.08
field max 344.04
field sum 367444.92
field sqrsum 112702140.0144
bin	-inf	0
bin	250	0
bin	252	0
bin	254	0
bin	256	0
bin	258	0
bin	260	0
bin	262	0
bin	264	0
bin	266	0
bin	268	2
bin	270	2
bin	272	3
bin	274	2
bin	276	3
bin	278	5
bin	280	5
bin	282	16
bin	284	26
bin	286	28
bin	288	32
bin	290	31
bin	292	35
bin	294	56
bin	296	62
bin	298	53
bin	300	79
bin	302	84
bin	304	79
bin	306	68
bin	308	89
bin	310	66
bin	312	56
bin	314	60
bin	316	60
bin	318	44
bin	320	36
bin	322	18
bin	324	19
bin	326	21
bin	328	16
bin	330	12
bin	332	14
bin	334	4
bin	336	4
bin	338	7
bin	340	2
bin	342	0
bin	344	1
bin	346	0
bin	348	0
bin	350	0
bin	352	0
bin	354	0
bin	356	0
bin	358	0
scalar Network.tor[7] "cache_content_by_app: " 0.57692307692308
scalar Network.tor[8] "Bandwidth: " 0
statistic Network.tor[8] "flow count"
field count 1200
field mean 631.365
field stddev 19.069298364564
field min 578
field max 686
field sum 757638
field sqrsum 478782118
bin	-inf	0
bin	578	1
bin	580	0
bin	582	0
bin	584	1
bin	586	0
bin	588	6
bin	590	2
bin	592	5
bin	594	12
bin	596	8
bin	598	16
bin	600	18
bin	602	18
bin	604	20
bin	606	33
bin	608	24
bin	610	40
bin	612	25
bin	614	38
bin	616	36
bin	618	43
bin	620	46
bin	622	43
bin	624	47
bin	626	35
bin	628	42
bin	630	50
bin	632	44
bin	634	38
bin	636	53
bin	638	44
bin	640	42
bin	642	43
bin	644	37
bin	646	39
bin	648	28
bin	650	28
bin	652	24
bin	654	31
bin	656	22
bin	658	22
bin	660	28
bin	662	12
bin	664	15
bin	666	11
bin	668	6
bin	670	9
bin	672	5
bin	674	2
bin	676	2
bin	678	3
bin	680	0
bin	682	0
bin	684	2
bin	686	1
bin	688	0
bin	690	0
bin	692	0
bin	694	0
bin	696	0
bin	698	0
statistic Network.tor[8] cache_occupancy
field count 1200
field mean 300
field stddev 0
field min 300
field max 300
field sum 360000
field sqrsum 108000000
bin	-inf	0
bin	299	0
bin	300	1200
bin	301	0
statistic Network.tor[8] activity_time_of_a_rule_A
field count 115518
field mean 0.00012475680537807
field stddev 0.00068756578101692
field min 0
field max 0.030828884638
field sum 14.411656643664
field sqrsum 0.056408233159558
bin	-inf	0
bin	-0.5	0
bin	-0.48	0
bin	-0.46	0
bin	-0.44	0
bin	-0.42	0
bin	-0.4	0
bin	-0.38	0
bin	-0.36	0
bin	-0.34	0
bin	-0.32	0
bin	-0.3	0
bin	-0.28	0
bin	-0.26	0
bin	-0.24	0
bin	-0.22	0
bin	-0.2	0
bin	-0.18	0
bin	-0.16	0
bin	-0.14	0
bin	-0.12	0
bin	-0.1	0
bin	-0.08	0
bin	-0.06	0
bin	-0.04	0
bin	-0.02	0
bin	0	115510
bin	0.02	8
bin	0.04	0
bin	0.06	0
bin	0.08	0
bin	0.1	0
bin	0.12	0
bin	0.14	0
bin	0.16	0
bin	0.18	0
bin	0.2	0
bin	0.22	0
bin	0.24	0
bin	0.26	0
bin	0.28	0
bin	0.3	0
bin	0.32	0
bin	0.34	0
bin	0.36	0
bin	0.38	0
bin	0.4	0
bin	0.42	0
bin	0.44	0
bin	0.46	0
bin	0.48	0
bin	0.5	0
statistic Network.tor[8] activity_time_of_a_rule_B
field count 491828
field mean 2.0688714339763e-005
field stddev 0.00010758276720726
field min 0
field max 0.006387407356
field sum 10.175288996297
field sqrsum 0.0059029448219932
bin	-inf	0
bin	-0.5	0
bin	-0.48	0
bin	-0.46	0
bin	-0.44	0
bin	-0.42	0
bin	-0.4	0
bin	-0.38	0
bin	-0.36	0
bin	-0.34	0
bin	-0.32	0
bin	-0.3	0
bin	-0.28	0
bin	-0.26	0
bin	-0.24	0
bin	-0.22	0
bin	-0.2	0
bin	-0.18	0
bin	-0.16	0
bin	-0.14	0
bin	-0.12	0
bin	-0.1	0
bin	-0.08	0
bin	-0.06	0
bin	-0.04	0
bin	-0.02	0
bin	0	491828
bin	0.02	0
bin	0.04	0
bin	0.06	0
bin	0.08	0
bin	0.1	0
bin	0.12	0
bin	0.14	0
bin	0.16	0
bin	0.18	0
bin	0.2	0
bin	0.22	0
bin	0.24	0
bin	0.26	0
bin	0.28	0
bin	0.3	0
bin	0.32	0
bin	0.34	0
bin	0.36	0
bin	0.38	0
bin	0.4	0
bin	0.42	0
bin	0.44	0
bin	0.46	0
bin	0.48	0
bin	0.5	0
statistic Network.tor[8] bandwidth_histogram
field count 1200
field mean 315.8448
field stddev 23.25302584545
field min 258.48
field max 394.92
field sum 379013.76
field sqrsum 120357828.3744
bin	-inf	0
bin	258	1
bin	260	0
bin	262	0
bin	264	1
bin	266	1
bin	268	1
bin	270	2
bin	272	1
bin	274	0
bin	276	6
bin	278	5
bin	280	10
bin	282	11
bin	284	28
bin	286	23
bin	288	28
bin	290	37
bin	292	31
bin	294	53
bin	296	49
bin	298	42
bin	300	52
bin	302	49
bin	304	43
bin	306	47
bin	308	50
bin	310	41
bin	312	46
bin	314	29
bin	316	41
bin	318	28
bin	320	37
bin	322	31
bin	324	38
bin	326	26
bin	328	37
bin	330	18
bin	332	20
bin	334	28
bin	336	11
bin	338	10
bin	340	19
bin	342	17
bin	344	11
bin	346	7
bin	348	8
bin	350	8
bin	352	14
bin	354	12
bin	356	11
bin	358	13
bin	360	10
bin	362	4
bin	364	5
bin	366	9
bin	368	8
bin	370	5
bin	372	5
bin	374	4
bin	376	1
bin	378	3
bin	380	3
bin	382	2
bin	384	5
bin	386	2
bin	388	0
bin	390	0
bin	392	1
bin	394	1
bin	396	0
scalar Network.tor[8] "cache_content_by_app: " 0.59745762711864
scalar Network.tor[9] "Bandwidth: " 0
statistic Network.tor[9] "flow count"
field count 1200
field mean 640.40416666667
field stddev 23.205952817701
field min 586
field max 706
field sum 768485
field sqrsum 492786677
bin	-inf	0
bin	586	1
bin	588	1
bin	590	1
bin	592	1
bin	594	3
bin	596	3
bin	598	5
bin	600	2
bin	602	11
bin	604	15
bin	606	25
bin	608	12
bin	610	29
bin	612	31
bin	614	33
bin	616	29
bin	618	36
bin	620	41
bin	622	33
bin	624	53
bin	626	41
bin	628	55
bin	630	44
bin	632	47
bin	634	40
bin	636	37
bin	638	35
bin	640	16
bin	642	36
bin	644	35
bin	646	24
bin	648	23
bin	650	22
bin	652	10
bin	654	30
bin	656	19
bin	658	29
bin	660	23
bin	662	13
bin	664	27
bin	666	25
bin	668	28
bin	670	26
bin	672	22
bin	674	25
bin	676	19
bin	678	17
bin	680	14
bin	682	10
bin	684	12
bin	686	9
bin	688	7
bin	690	5
bin	692	5
bin	694	3
bin	696	0
bin	698	0
bin	700	1
bin	702	0
bin	704	0
bin	706	1
bin	708	0
statistic Network.tor[9] cache_occupancy
field count 1200
field mean 300
field stddev 0
field min 300
field max 300
field sum 360000
field sqrsum 108000000
bin	-inf	0
bin	299	0
bin	300	1200
bin	301	0
statistic Network.tor[9] activity_time_of_a_rule_A
field count 119395
field mean 0.00013143239891247
field stddev 0.00060307286251623
field min 0
field max 0.02558051628
field sum 15.692371268154
field sqrsum 0.045485710993054
bin	-inf	0
bin	-0.5	0
bin	-0.48	0
bin	-0.46	0
bin	-0.44	0
bin	-0.42	0
bin	-0.4	0
bin	-0.38	0
bin	-0.36	0
bin	-0.34	0
bin	-0.32	0
bin	-0.3	0
bin	-0.28	0
bin	-0.26	0
bin	-0.24	0
bin	-0.22	0
bin	-0.2	0
bin	-0.18	0
bin	-0.16	0
bin	-0.14	0
bin	-0.12	0
bin	-0.1	0
bin	-0.08	0
bin	-0.06	0
bin	-0.04	0
bin	-0.02	0
bin	0	119393
bin	0.02	2
bin	0.04	0
bin	0.06	0
bin	0.08	0
bin	0.1	0
bin	0.12	0
bin	0.14	0
bin	0.16	0
bin	0.18	0
bin	0.2	0
bin	0.22	0
bin	0.24	0
bin	0.26	0
bin	0.28	0
bin	0.3	0
bin	0.32	0
bin	0.34	0
bin	0.36	0
bin	0.38	0
bin	0.4	0
bin	0.42	0
bin	0.44	0
bin	0.46	0
bin	0.48	0
bin	0.5	0
statistic Network.tor[9] activity_time_of_a_rule_B
field count 494431
field mean 1.8295295553082e-005
field stddev 9.5217892587047e-005
field min 0
field max 0.004458165241
field sum 9.045761275606
field sqrsum 0.0046482183002263
bin	-inf	0
bin	-0.5	0
bin	-0.48	0
bin	-0.46	0
bin	-0.44	0
bin	-0.42	0
bin	-0.4	0
bin	-0.38	0
bin	-0.36	0
bin	-0.34	0
bin	-0.32	0
bin	-0.3	0
bin	-0.28	0
bin	-0.26	0
bin	-0.24	0
bin	-0.22	0
bin	-0.2	0
bin	-0.18	0
bin	-0.16	0
bin	-0.14	0
bin	-0.12	0
bin	-0.1	0
bin	-0.08	0
bin	-0.06	0
bin	-0.04	0
bin	-0.02	0
bin	0	494431
bin	0.02	0
bin	0.04	0
bin	0.06	0
bin	0.08	0
bin	0.1	0
bin	0.12	0
bin	0.14	0
bin	0.16	0
bin	0.18	0
bin	0.2	0
bin	0.22	0
bin	0.24	0
bin	0.26	0
bin	0.28	0
bin	0.3	0
bin	0.32	0
bin	0.34	0
bin	0.36	0
bin	0.38	0
bin	0.4	0
bin	0.42	0
bin	0.44	0
bin	0.46	0
bin	0.48	0
bin	0.5	0
statistic Network.tor[9] bandwidth_histogram
field count 1200
field mean 321.896
field stddev 20.519241946885
field min 269.64
field max 391.68
field sum 386275.2
field sqrsum 124845267.888
bin	-inf	0
bin	250	0
bin	252	0
bin	254	0
bin	256	0
bin	258	0
bin	260	0
bin	262	0
bin	264	0
bin	266	0
bin	268	1
bin	270	0
bin	272	0
bin	274	1
bin	276	1
bin	278	2
bin	280	4
bin	282	7
bin	284	6
bin	286	17
bin	288	13
bin	290	19
bin	292	18
bin	294	26
bin	296	22
bin	298	42
bin	300	34
bin	302	38
bin	304	40
bin	306	53
bin	308	43
bin	310	51
bin	312	37
bin	314	39
bin	316	40
bin	318	35
bin	320	31
bin	322	37
bin	324	35
bin	326	40
bin	328	41
bin	330	45
bin	332	39
bin	334	45
bin	336	34
bin	338	29
bin	340	35
bin	342	24
bin	344	21
bin	346	23
bin	348	17
bin	350	20
bin	352	11
bin	354	21
bin	356	6
bin	358	13
bin	360	7
bin	362	11
bin	364	2
bin	366	5
bin	368	3
bin	370	3
bin	372	2
bin	374	4
bin	376	1
bin	378	1
bin	380	1
bin	382	0
bin	384	0
bin	386	1
bin	388	0
bin	390	3
bin	392	0
scalar Network.tor[9] "cache_content_by_app: " 0.62916666666667
scalar Network.agg[0] "Bandwidth: " 0
statistic Network.agg[0] "flow count"
field count 1200
field mean 3501.3416666667
field stddev 19.095910785531
field min 3449
field max 3558
field sum 4201610
field sqrsum 14711709380
bin	-inf	0
bin	3426	0
bin	3428	0
bin	3430	0
bin	3432	0
bin	3434	0
bin	3436	0
bin	3438	0
bin	3440	0
bin	3442	0
bin	3444	0
bin	3446	0
bin	3448	1
bin	3450	1
bin	3452	2
bin	3454	2
bin	3456	3
bin	3458	4
bin	3460	8
bin	3462	9
bin	3464	7
bin	3466	6
bin	3468	14
bin	3470	11
bin	3472	26
bin	3474	21
bin	3476	18
bin	3478	36
bin	3480	27
bin	3482	29
bin	3484	26
bin	3486	34
bin	3488	43
bin	3490	42
bin	3492	43
bin	3494	42
bin	3496	43
bin	3498	41
bin	3500	47
bin	3502	53
bin	3504	55
bin	3506	49
bin	3508	55
bin	3510	45
bin	3512	36
bin	3514	43
bin	3516	45
bin	3518	36
bin	3520	34
bin	3522	26
bin	3524	14
bin	3526	22
bin	3528	22
bin	3530	11
bin	3532	12
bin	3534	11
bin	3536	6
bin	3538	9
bin	3540	6
bin	3542	3
bin	3544	5
bin	3546	3
bin	3548	6
bin	3550	2
bin	3552	1
bin	3554	1
bin	3556	2
bin	3558	1
bin	3560	0
bin	3562	0
bin	3564	0
statistic Network.agg[0] cache_occupancy
field count 1200
field mean 1500
field stddev 0
field min 1500
field max 1500
field sum 1800000
field sqrsum 2700000000
bin	-inf	0
bin	1499	0
bin	1500	1200
bin	1501	0
statistic Network.agg[0] activity_time_of_a_rule_A
field count 103480
field mean 0.00014845062658695
field stddev 0.00017690510488786
field min 0
field max 0.002081098352
field sum 15.361670839218
field sqrsum 0.0055188680277781
bin	-inf	0
bin	0	29346
bin	3.2e-005	14028
bin	6.4e-005	10597
bin	9.6e-005	8560
bin	0.000128	7151
bin	0.00016	5547
bin	0.000192	4409
bin	0.000224	4072
bin	0.000256	3122
bin	0.000288	2635
bin	0.00032	2307
bin	0.000352	1892
bin	0.000384	1516
bin	0.000416	1335
bin	0.000448	1139
bin	0.00048	854
bin	0.000512	767
bin	0.000544	687
bin	0.000576	501
bin	0.000608	470
bin	0.00064	407
bin	0.000672	298
bin	0.000704	293
bin	0.000736	256
bin	0.000768	217
bin	0.0008	161
bin	0.000832	144
bin	0.000864	124
bin	0.000896	92
bin	0.000928	95
bin	0.00096	77
bin	0.000992	54
bin	0.001024	51
bin	0.001056	43
bin	0.001088	31
bin	0.00112	31
bin	0.001152	27
bin	0.001184	19
bin	0.001216	21
bin	0.001248	17
bin	0.00128	12
bin	0.001312	5
bin	0.001344	13
bin	0.001376	7
bin	0.001408	8
bin	0.00144	6
bin	0.001472	6
bin	0.001504	4
bin	0.001536	5
bin	0.001568	4
bin	0.0016	1
bin	0.001632	2
bin	0.001664	1
bin	0.001696	0
bin	0.001728	4
bin	0.00176	1
bin	0.001792	2
bin	0.001824	1
bin	0.001856	0
bin	0.001888	0
bin	0.00192	1
bin	0.001952	1
bin	0.001984	1
bin	0.002016	1
bin	0.002048	0
bin	0.00208	1
bin	0.002112	0
statistic Network.agg[0] activity_time_of_a_rule_B
field count 464800
field mean 0.00022917090995785
field stddev 0.00028158782612307
field min 0
field max 0.008211390081
field sum 106.51863894841
field sqrsum 0.061265678059445
bin	-inf	0
bin	0	188499
bin	9.6e-005	91192
bin	0.000192	57999
bin	0.000288	38587
bin	0.000384	25812
bin	0.00048	17854
bin	0.000576	12393
bin	0.000672	8630
bin	0.000768	6238
bin	0.000864	4513
bin	0.00096	3303
bin	0.001056	2364
bin	0.001152	1823
bin	0.001248	1304
bin	0.001344	1020
bin	0.00144	723
bin	0.001536	555
bin	0.001632	429
bin	0.001728	381
bin	0.001824	237
bin	0.00192	194
bin	0.002016	161
bin	0.002112	116
bin	0.002208	97
bin	0.002304	81
bin	0.0024	62
bin	0.002496	43
bin	0.002592	40
bin	0.002688	32
bin	0.002784	24
bin	0.00288	18
bin	0.002976	9
bin	0.003072	10
bin	0.003168	16
bin	0.003264	5
bin	0.00336	7
bin	0.003456	10
bin	0.003552	5
bin	0.003648	0
bin	0.003744	2
bin	0.00384	2
bin	0.003936	3
bin	0.004032	0
bin	0.004128	1
bin	0.004224	1
bin	0.00432	1
bin	0.004416	0
bin	0.004512	1
bin	0.004608	0
bin	0.004704	1
bin	0.0048	0
bin	0.004896	0
bin	0.004992	0
bin	0.005088	0
bin	0.005184	0
bin	0.00528	0
bin	0.005376	0
bin	0.005472	0
bin	0.005568	1
bin	0.005664	0
bin	0.00576	0
bin	0.005856	0
bin	0.005952	0
bin	0.006048	0
bin	0.006144	0
bin	0.00624	0
bin	0.006336	0
bin	0.006432	0
bin	0.006528	0
bin	0.006624	0
bin	0.00672	0
bin	0.006816	0
bin	0.006912	0
bin	0.007008	0
bin	0.007104	0
bin	0.0072	0
bin	0.007296	0
bin	0.007392	0
bin	0.007488	0
bin	0.007584	0
bin	0.00768	0
bin	0.007776	0
bin	0.007872	0
bin	0.007968	0
bin	0.008064	0
bin	0.00816	1
bin	0.008256	0
statistic Network.agg[0] bandwidth_histogram
field count 0
field mean nan
field stddev nan
field min nan
field max nan
field sum 0
field sqrsum 0
bin	-inf	0
bin	0	0
bin	1	0
scalar Network.agg[0] "cache_content_by_app: " 0.13393590797042
statistic Network.dest "miss count"
field count 31443180
field mean 0.5590613290386
field stddev 0.70441018547381
field min 0
field max 2
field sum 17578666
field sqrsum 25429460
bin	-inf	0
bin	0	17789911
bin	1	9727872
bin	2	3925397
bin	3	0
statistic Network.dest "out of order"
field count 31443180
field mean 1.1001448962859
field stddev 10.252026722857
field min -18
field max 5177
field sum 34592054
field sqrsum 3342861790
bin	-inf	0
bin	-100	7679
bin	0	31429005
bin	100	1393
bin	200	1467
bin	300	1378
bin	400	1117
bin	500	77
bin	600	78
bin	700	67
bin	800	80
bin	900	81
bin	1000	71
bin	1100	66
bin	1200	73
bin	1300	52
bin	1400	49
bin	1500	58
bin	1600	47
bin	1700	45
bin	1800	38
bin	1900	38
bin	2000	26
bin	2100	30
bin	2200	40
bin	2300	28
bin	2400	22
bin	2500	16
bin	2600	19
bin	2700	9
bin	2800	9
bin	2900	9
bin	3000	0
bin	3100	2
bin	3200	0
bin	3300	1
bin	3400	0
bin	3500	0
bin	3600	0
bin	3700	1
bin	3800	1
bin	3900	1
bin	4000	0
bin	4100	0
bin	4200	2
bin	4300	1
bin	4400	1
bin	4500	1
bin	4600	1
bin	4700	0
bin	4800	0
bin	4900	0
bin	5000	0
bin	5100	1
bin	5200	0
bin	5300	0
bin	5400	0
bin	5500	0
bin	5600	0
bin	5700	0
bin	5800	0
statistic Network.dest "bandwidth to destination"
field count 1200
field mean 3144318000000
field stddev 66804931063.093
field min 2901600000000
field max 3315840000000
field sum 3.7731816e+015
field sqrsum 1.1869433837827e+028
bin	-inf	0
bin	2830000000000	0
bin	2840000000000	0
bin	2850000000000	0
bin	2860000000000	0
bin	2870000000000	0
bin	2880000000000	0
bin	2890000000000	0
bin	2900000000000	1
bin	2910000000000	0
bin	2920000000000	0
bin	2930000000000	0
bin	2940000000000	0
bin	2950000000000	0
bin	2960000000000	0
bin	2970000000000	0
bin	2980000000000	3
bin	2990000000000	2
bin	3000000000000	4
bin	3010000000000	6
bin	3020000000000	12
bin	3030000000000	21
bin	3040000000000	29
bin	3050000000000	40
bin	3060000000000	45
bin	3070000000000	57
bin	3080000000000	61
bin	3090000000000	57
bin	3100000000000	63
bin	3110000000000	69
bin	3120000000000	77
bin	3130000000000	75
bin	3140000000000	56
bin	3150000000000	58
bin	3160000000000	48
bin	3170000000000	48
bin	3180000000000	45
bin	3190000000000	51
bin	3200000000000	45
bin	3210000000000	40
bin	3220000000000	38
bin	3230000000000	41
bin	3240000000000	28
bin	3250000000000	23
bin	3260000000000	24
bin	3270000000000	11
bin	3280000000000	6
bin	3290000000000	5
bin	3300000000000	8
bin	3310000000000	3
bin	3320000000000	0
statistic Network.dest miss_count_by_apps
field count 31443180
field mean 0.81307860718922
field stddev 0.86012411595552
field min 0
field max 2.5
field sum 25565777
field sqrsum 44049074.5
bin	-inf	0
bin	0	13433844
bin	0.05	0
bin	0.1	0
bin	0.15	0
bin	0.2	0
bin	0.25	0
bin	0.3	0
bin	0.35	0
bin	0.4	0
bin	0.45	0
bin	0.5	4356067
bin	0.55	0
bin	0.6	0
bin	0.65	0
bin	0.7	0
bin	0.75	0
bin	0.8	0
bin	0.85	0
bin	0.9	0
bin	0.95	0
bin	1	1117621
bin	1.05	0
bin	1.1	0
bin	1.15	0
bin	1.2	0
bin	1.25	0
bin	1.3	0
bin	1.35	0
bin	1.4	0
bin	1.45	0
bin	1.5	8610251
bin	1.55	0
bin	1.6	0
bin	1.65	0
bin	1.7	0
bin	1.75	0
bin	1.8	0
bin	1.85	0
bin	1.9	0
bin	1.95	0
bin	2	917493
bin	2.05	0
bin	2.1	0
bin	2.15	0
bin	2.2	0
bin	2.25	0
bin	2.3	0
bin	2.35	0
bin	2.4	0
bin	2.45	0
bin	2.5	3007904
bin	2.55	0
bin	2.6	0
bin	2.65	0
scalar Network.dest "Simulation duration (in minutes). By chrono library: " 3.85

