version 2
run General-1-20230921-09:03:32-10360
attr configname General
attr datetime 20230921-09:03:32
attr experiment General
attr inifile omnetpp.ini
attr iterationvars "$endSim=3.12s, $hosts=15000, $SizeDist=i-hadoop, $p=0.5, $scale=1, $alg=diversity, $diversityTh=2, $pAlg=0.5, $countTh=2, $ThInAgg=2.5e9, $packetIndexAgg=4, $packetIndexCosw=4, $NumOfToRs=10, $cacheToR=300, $cacheAgg=10*300*0.5, $thInCons=2.5e9, $rate=1600000000000, $S=xxx/diversity p = 0.5 th in Agg = 2.5e9 countTh = 2 App A=(Hadoop 2.5e9 t 4) App B (avg(Hadoop) 2.5e9 d 4)/end time = 3.12s CToR = 300/"
attr iterationvarsf endSim=3.12s,hosts=15000,SizeDist=i-hadoop,p=0.5,scale=1,alg=diversity,diversityTh=2,pAlg=0.5,countTh=2,ThInAgg=2.5e9,packetIndexAgg=4,packetIndexCosw=4,NumOfToRs=10,cacheToR=300,cacheAgg=10#2a300#2a0.5,thInCons=2.5e9,rate=1600000000000,S=xxx#2fdiversity_p_=_0.5_th_in_Agg_=_2.5e9_countTh_=_2_App_A=(Hadoop_2.5e9_t_4)_App_B_(avg(Hadoop)_2.5e9_d_4)#2fend_time_=_3.12s_CToR_=_300#2f-
attr measurement "$endSim=3.12s, $hosts=15000, $SizeDist=i-hadoop, $p=0.5, $scale=1, $alg=diversity, $diversityTh=2, $pAlg=0.5, $countTh=2, $ThInAgg=2.5e9, $packetIndexAgg=4, $packetIndexCosw=4, $NumOfToRs=10, $cacheToR=300, $cacheAgg=10*300*0.5, $thInCons=2.5e9, $rate=1600000000000, $S=xxx/diversity p = 0.5 th in Agg = 2.5e9 countTh = 2 App A=(Hadoop 2.5e9 t 4) App B (avg(Hadoop) 2.5e9 d 4)/end time = 3.12s CToR = 300/"
attr network Network
attr processid 10360
attr repetition 0
attr replication #0
attr resultdir results
attr runnumber 1
attr seedset 1
itervar NumOfToRs 10
itervar S "xxx/diversity p = 0.5 th in Agg = 2.5e9 countTh = 2 App A=(Hadoop 2.5e9 t 4) App B (avg(Hadoop) 2.5e9 d 4)/end time = 3.12s CToR = 300/"
itervar SizeDist i-hadoop
itervar ThInAgg 2.5e9
itervar alg diversity
itervar cacheAgg 10*300*0.5
itervar cacheToR 300
itervar countTh 2
itervar diversityTh 2
itervar endSim 3.12s
itervar hosts 15000
itervar p 0.5
itervar pAlg 0.5
itervar packetIndexAgg 4
itervar packetIndexCosw 4
itervar rate 1600000000000
itervar scale 1
itervar thInCons 2.5e9
param Network.estimate_rate_interval 0.5e-3
param Network.policy_size "\"10e6\""
param Network.rack[*].number_of_hosts 15000
param Network.size_distribution "\"size_distribution/i-hadoop.csv\""
param Network.prob_of_app_A 0.5
param Network.scale 1
param Network.algorithm "\"diversity\""
param Network.diversity_th 2
param Network.p_in_algorithm 0.5
param Network.count_th 2
param Network.push_threshold_in_aggregation 2.5e9
param Network.packet_index_for_decision_Agg 4
param Network.packet_index_for_decision_cosw 4
param Network.cache_size "\"2222\""
param Network.NumOfToRs 10
param Network.NumOfAggregation 1
param Network.tor[*].max_cache_size 300
param Network.agg[*].max_cache_size 10*300*0.5
param Network.push_threshold_in_controller_switch 2.5e9
param Network.total_rate_in_tor "\"1600000000000\""
param Network.output_file "\"xxx/diversity p = 0.5 th in Agg = 2.5e9 countTh = 2 App A=(Hadoop 2.5e9 t 4) App B (avg(Hadoop) 2.5e9 d 4)/end time = 3.12s CToR = 300/\""
param Network.run_elephant true
param Network.bandwidth_elephant_threshold "\"2.5e9\""
param Network.run_push true
param Network.record_traffic false
param Network.create_offline_traffic false
param Network.linedelay 0.2
param Network.tor[*].threshold 2
param Network.agg[*].threshold 2
param Network.tor[*].Type 1001
param Network.agg[*].Type 1002
param Network.rack[*].host[*].flow_appearance "\"\""
param Network.rack[*].host[*].flow_size "\"\""
param Network.propagation_time "\"\""
param Network.processing_time_on_data_packet_in_sw "\"\""
param Network.processing_time_on_data_packet_in_controller "\"\""
param Network.insertion_delay "\"\""
param Network.eviction_delay "\"\""
param Network.elephant_table_size "\"\""
param Network.flush_elephant_time "\"\""
param Network.check_for_elephant_time "\"\""
param Network.elephant_sample_rx "\"\""
param Network.already_requested_threshold "\"\""
param Network.cache_percentage "\"\""
param Network.eviction_sample_size "\"\""
param Network.inter_arrival_time_between_packets "\"\""
param Network.inter_arrival_time_between_flowlets "\"\""
param Network.inter_arrival_time_between_flows "\"\""
param Network.large_flow "\"\""
param Network.last_flow_appearance "\"0\""
param Network.rack[*].last_flow_appearance 0

scalar Network.controller "prob_of_app_A: " 0.5
scalar Network.tor[0] "max_cache_size: " 300
scalar Network.tor[0] "push threshold: " 0
scalar Network.tor[1] "max_cache_size: " 300
scalar Network.tor[1] "push threshold: " 0
scalar Network.tor[2] "max_cache_size: " 300
scalar Network.tor[2] "push threshold: " 0
scalar Network.tor[3] "max_cache_size: " 300
scalar Network.tor[3] "push threshold: " 0
scalar Network.tor[4] "max_cache_size: " 300
scalar Network.tor[4] "push threshold: " 0
scalar Network.tor[5] "max_cache_size: " 300
scalar Network.tor[5] "push threshold: " 0
scalar Network.tor[6] "max_cache_size: " 300
scalar Network.tor[6] "push threshold: " 0
scalar Network.tor[7] "max_cache_size: " 300
scalar Network.tor[7] "push threshold: " 0
scalar Network.tor[8] "max_cache_size: " 300
scalar Network.tor[8] "push threshold: " 0
scalar Network.tor[9] "max_cache_size: " 300
scalar Network.tor[9] "push threshold: " 0
scalar Network.agg[0] "max_cache_size: " 1500
scalar Network.agg[0] "push threshold: " 2500000000
scalar Network.dest "run_elephant: " 1
scalar Network.dest "run_push: " 1
scalar Network.dest "cache_size: " 2222
scalar Network.dest "scale: " 1
scalar Network.dest "total_rate_in_tor: " 1600000000000
scalar Network.controller "INTERVAL: " 0.0001
scalar Network.controller "insertion_rate: " 98451783.333333
statistic Network.controller Total_bandwidth_hist
field count 1200
field mean 352.1344
field stddev 30.81324439261
field min 307.44
field max 1279.92
field sum 422561.28
field sqrsum 149936760.576
bin	-inf	0
bin	80	0
bin	100	0
bin	120	0
bin	140	0
bin	160	0
bin	180	0
bin	200	0
bin	220	0
bin	240	0
bin	260	0
bin	280	0
bin	300	9
bin	320	270
bin	340	607
bin	360	282
bin	380	29
bin	400	1
bin	420	0
bin	440	0
bin	460	0
bin	480	0
bin	500	1
bin	520	0
bin	540	0
bin	560	0
bin	580	0
bin	600	0
bin	620	0
bin	640	0
bin	660	0
bin	680	0
bin	700	0
bin	720	0
bin	740	0
bin	760	0
bin	780	0
bin	800	0
bin	820	0
bin	840	0
bin	860	0
bin	880	0
bin	900	0
bin	920	0
bin	940	0
bin	960	0
bin	980	0
bin	1000	0
bin	1020	0
bin	1040	0
bin	1060	0
bin	1080	0
bin	1100	0
bin	1120	0
bin	1140	0
bin	1160	0
bin	1180	0
bin	1200	0
bin	1220	0
bin	1240	0
bin	1260	1
bin	1280	0
bin	1300	0
bin	1320	0
bin	1340	0
bin	1360	0
bin	1380	0
bin	1400	0
bin	1420	0
bin	1440	0
bin	1460	0
bin	1480	0
bin	1500	0
bin	1520	0
statistic Network.rack[0].hub "bandwidth hist"
field count 1200
field mean 334774000000
field stddev 17615305233.865
field min 292200000000
field max 410520000000
field sum 4.017288e+014
field sqrsum 1.348604057664e+026
bin	-inf	0
bin	286000000000	0
bin	288000000000	0
bin	290000000000	0
bin	292000000000	2
bin	294000000000	1
bin	296000000000	6
bin	298000000000	3
bin	300000000000	6
bin	302000000000	6
bin	304000000000	14
bin	306000000000	18
bin	308000000000	20
bin	310000000000	18
bin	312000000000	28
bin	314000000000	34
bin	316000000000	41
bin	318000000000	51
bin	320000000000	53
bin	322000000000	51
bin	324000000000	42
bin	326000000000	51
bin	328000000000	66
bin	330000000000	55
bin	332000000000	69
bin	334000000000	51
bin	336000000000	42
bin	338000000000	48
bin	340000000000	45
bin	342000000000	41
bin	344000000000	38
bin	346000000000	41
bin	348000000000	28
bin	350000000000	34
bin	352000000000	28
bin	354000000000	25
bin	356000000000	23
bin	358000000000	22
bin	360000000000	15
bin	362000000000	22
bin	364000000000	6
bin	366000000000	8
bin	368000000000	7
bin	370000000000	9
bin	372000000000	4
bin	374000000000	4
bin	376000000000	5
bin	378000000000	2
bin	380000000000	1
bin	382000000000	2
bin	384000000000	5
bin	386000000000	2
bin	388000000000	1
bin	390000000000	1
bin	392000000000	2
bin	394000000000	0
bin	396000000000	0
bin	398000000000	1
bin	400000000000	0
bin	402000000000	1
bin	404000000000	0
bin	406000000000	0
bin	408000000000	0
bin	410000000000	1
bin	412000000000	0
statistic Network.rack[1].hub "bandwidth hist"
field count 1200
field mean 337898700000
field stddev 25846366356.897
field min 285840000000
field max 440760000000
field sum 4.0547844e+014
field sqrsum 1.37811611304e+026
bin	-inf	0
bin	284000000000	1
bin	286000000000	0
bin	288000000000	2
bin	290000000000	2
bin	292000000000	1
bin	294000000000	7
bin	296000000000	6
bin	298000000000	6
bin	300000000000	13
bin	302000000000	18
bin	304000000000	13
bin	306000000000	17
bin	308000000000	25
bin	310000000000	29
bin	312000000000	36
bin	314000000000	40
bin	316000000000	38
bin	318000000000	48
bin	320000000000	54
bin	322000000000	39
bin	324000000000	50
bin	326000000000	51
bin	328000000000	49
bin	330000000000	45
bin	332000000000	40
bin	334000000000	37
bin	336000000000	42
bin	338000000000	32
bin	340000000000	36
bin	342000000000	28
bin	344000000000	36
bin	346000000000	30
bin	348000000000	18
bin	350000000000	33
bin	352000000000	22
bin	354000000000	19
bin	356000000000	22
bin	358000000000	11
bin	360000000000	13
bin	362000000000	17
bin	364000000000	6
bin	366000000000	7
bin	368000000000	14
bin	370000000000	15
bin	372000000000	9
bin	374000000000	9
bin	376000000000	11
bin	378000000000	13
bin	380000000000	4
bin	382000000000	8
bin	384000000000	8
bin	386000000000	6
bin	388000000000	4
bin	390000000000	7
bin	392000000000	3
bin	394000000000	4
bin	396000000000	3
bin	398000000000	4
bin	400000000000	5
bin	402000000000	1
bin	404000000000	4
bin	406000000000	2
bin	408000000000	3
bin	410000000000	4
bin	412000000000	1
bin	414000000000	2
bin	416000000000	3
bin	418000000000	3
bin	420000000000	4
bin	422000000000	1
bin	424000000000	2
bin	426000000000	1
bin	428000000000	0
bin	430000000000	1
bin	432000000000	0
bin	434000000000	0
bin	436000000000	1
bin	438000000000	0
bin	440000000000	1
bin	442000000000	0
statistic Network.rack[2].hub "bandwidth hist"
field count 1200
field mean 323124100000
field stddev 16845387135.554
field min 276120000000
field max 379320000000
field sum 3.8774892e+014
field sqrsum 1.256312575152e+026
bin	-inf	0
bin	276000000000	1
bin	278000000000	0
bin	280000000000	1
bin	282000000000	1
bin	284000000000	5
bin	286000000000	1
bin	288000000000	4
bin	290000000000	4
bin	292000000000	16
bin	294000000000	12
bin	296000000000	19
bin	298000000000	21
bin	300000000000	31
bin	302000000000	50
bin	304000000000	37
bin	306000000000	39
bin	308000000000	40
bin	310000000000	49
bin	312000000000	36
bin	314000000000	43
bin	316000000000	55
bin	318000000000	52
bin	320000000000	80
bin	322000000000	65
bin	324000000000	54
bin	326000000000	53
bin	328000000000	45
bin	330000000000	55
bin	332000000000	43
bin	334000000000	34
bin	336000000000	30
bin	338000000000	35
bin	340000000000	25
bin	342000000000	21
bin	344000000000	22
bin	346000000000	17
bin	348000000000	16
bin	350000000000	13
bin	352000000000	18
bin	354000000000	13
bin	356000000000	9
bin	358000000000	6
bin	360000000000	9
bin	362000000000	5
bin	364000000000	7
bin	366000000000	3
bin	368000000000	1
bin	370000000000	2
bin	372000000000	1
bin	374000000000	0
bin	376000000000	0
bin	378000000000	1
bin	380000000000	0
statistic Network.rack[3].hub "bandwidth hist"
field count 1200
field mean 316889400000
field stddev 16281568337.521
field min 270360000000
field max 371640000000
field sum 3.8026728e+014
field sqrsum 1.208205124704e+026
bin	-inf	0
bin	257000000000	0
bin	259000000000	0
bin	261000000000	0
bin	263000000000	0
bin	265000000000	0
bin	267000000000	0
bin	269000000000	1
bin	271000000000	1
bin	273000000000	4
bin	275000000000	4
bin	277000000000	3
bin	279000000000	1
bin	281000000000	5
bin	283000000000	9
bin	285000000000	14
bin	287000000000	10
bin	289000000000	21
bin	291000000000	21
bin	293000000000	14
bin	295000000000	23
bin	297000000000	28
bin	299000000000	31
bin	301000000000	45
bin	303000000000	35
bin	305000000000	46
bin	307000000000	46
bin	309000000000	63
bin	311000000000	51
bin	313000000000	49
bin	315000000000	72
bin	317000000000	62
bin	319000000000	69
bin	321000000000	72
bin	323000000000	49
bin	325000000000	46
bin	327000000000	55
bin	329000000000	36
bin	331000000000	36
bin	333000000000	24
bin	335000000000	32
bin	337000000000	15
bin	339000000000	20
bin	341000000000	12
bin	343000000000	18
bin	345000000000	14
bin	347000000000	12
bin	349000000000	5
bin	351000000000	9
bin	353000000000	4
bin	355000000000	2
bin	357000000000	1
bin	359000000000	1
bin	361000000000	1
bin	363000000000	1
bin	365000000000	1
bin	367000000000	3
bin	369000000000	1
bin	371000000000	2
bin	373000000000	0
statistic Network.rack[4].hub "bandwidth hist"
field count 1200
field mean 330314800000
field stddev 26523842006.563
field min 274320000000
field max 440520000000
field sum 3.9637776e+014
field sqrsum 1.317729540384e+026
bin	-inf	0
bin	272000000000	1
bin	276000000000	3
bin	280000000000	3
bin	284000000000	11
bin	288000000000	22
bin	292000000000	34
bin	296000000000	55
bin	300000000000	54
bin	304000000000	56
bin	308000000000	64
bin	312000000000	85
bin	316000000000	75
bin	320000000000	75
bin	324000000000	61
bin	328000000000	89
bin	332000000000	92
bin	336000000000	58
bin	340000000000	68
bin	344000000000	53
bin	348000000000	41
bin	352000000000	33
bin	356000000000	23
bin	360000000000	21
bin	364000000000	13
bin	368000000000	17
bin	372000000000	11
bin	376000000000	10
bin	380000000000	10
bin	384000000000	16
bin	388000000000	7
bin	392000000000	8
bin	396000000000	8
bin	400000000000	5
bin	404000000000	4
bin	408000000000	2
bin	412000000000	5
bin	416000000000	2
bin	420000000000	1
bin	424000000000	2
bin	428000000000	0
bin	432000000000	0
bin	436000000000	1
bin	440000000000	1
bin	444000000000	0
bin	448000000000	0
bin	452000000000	0
bin	456000000000	0
bin	460000000000	0
bin	464000000000	0
bin	468000000000	0
bin	472000000000	0
statistic Network.rack[5].hub "bandwidth hist"
field count 1200
field mean 327023900000
field stddev 22448829258.327
field min 264840000000
field max 405120000000
field sum 3.9242868e+014
field sqrsum 1.289377933776e+026
bin	-inf	0
bin	264000000000	1
bin	266000000000	0
bin	268000000000	0
bin	270000000000	0
bin	272000000000	0
bin	274000000000	1
bin	276000000000	2
bin	278000000000	4
bin	280000000000	2
bin	282000000000	10
bin	284000000000	5
bin	286000000000	4
bin	288000000000	14
bin	290000000000	14
bin	292000000000	23
bin	294000000000	18
bin	296000000000	22
bin	298000000000	29
bin	300000000000	24
bin	302000000000	23
bin	304000000000	25
bin	306000000000	26
bin	308000000000	25
bin	310000000000	37
bin	312000000000	36
bin	314000000000	34
bin	316000000000	36
bin	318000000000	41
bin	320000000000	48
bin	322000000000	42
bin	324000000000	46
bin	326000000000	36
bin	328000000000	57
bin	330000000000	49
bin	332000000000	44
bin	334000000000	38
bin	336000000000	48
bin	338000000000	42
bin	340000000000	24
bin	342000000000	22
bin	344000000000	28
bin	346000000000	18
bin	348000000000	22
bin	350000000000	16
bin	352000000000	16
bin	354000000000	17
bin	356000000000	20
bin	358000000000	13
bin	360000000000	9
bin	362000000000	12
bin	364000000000	5
bin	366000000000	6
bin	368000000000	7
bin	370000000000	8
bin	372000000000	14
bin	374000000000	9
bin	376000000000	4
bin	378000000000	4
bin	380000000000	5
bin	382000000000	7
bin	384000000000	2
bin	386000000000	3
bin	388000000000	0
bin	390000000000	0
bin	392000000000	1
bin	394000000000	0
bin	396000000000	0
bin	398000000000	1
bin	400000000000	0
bin	402000000000	0
bin	404000000000	1
bin	406000000000	0
statistic Network.rack[6].hub "bandwidth hist"
field count 1200
field mean 316430600000
field stddev 22018811207.978
field min 270000000000
field max 386880000000
field sum 3.7971672e+014
field sqrsum 1.20735298368e+026
bin	-inf	0
bin	244000000000	0
bin	246000000000	0
bin	248000000000	0
bin	250000000000	0
bin	252000000000	0
bin	254000000000	0
bin	256000000000	0
bin	258000000000	0
bin	260000000000	0
bin	262000000000	0
bin	264000000000	0
bin	266000000000	0
bin	268000000000	0
bin	270000000000	2
bin	272000000000	3
bin	274000000000	4
bin	276000000000	10
bin	278000000000	10
bin	280000000000	18
bin	282000000000	23
bin	284000000000	23
bin	286000000000	16
bin	288000000000	32
bin	290000000000	32
bin	292000000000	33
bin	294000000000	26
bin	296000000000	33
bin	298000000000	47
bin	300000000000	41
bin	302000000000	37
bin	304000000000	44
bin	306000000000	31
bin	308000000000	27
bin	310000000000	32
bin	312000000000	44
bin	314000000000	47
bin	316000000000	44
bin	318000000000	49
bin	320000000000	42
bin	322000000000	38
bin	324000000000	42
bin	326000000000	24
bin	328000000000	27
bin	330000000000	27
bin	332000000000	19
bin	334000000000	29
bin	336000000000	27
bin	338000000000	22
bin	340000000000	24
bin	342000000000	25
bin	344000000000	22
bin	346000000000	17
bin	348000000000	15
bin	350000000000	15
bin	352000000000	12
bin	354000000000	5
bin	356000000000	10
bin	358000000000	8
bin	360000000000	9
bin	362000000000	6
bin	364000000000	5
bin	366000000000	8
bin	368000000000	3
bin	370000000000	1
bin	372000000000	3
bin	374000000000	3
bin	376000000000	1
bin	378000000000	1
bin	380000000000	0
bin	382000000000	1
bin	384000000000	0
bin	386000000000	1
bin	388000000000	0
bin	390000000000	0
bin	392000000000	0
bin	394000000000	0
bin	396000000000	0
statistic Network.rack[7].hub "bandwidth hist"
field count 1200
field mean 317585300000
field stddev 22882128450.212
field min 262320000000
field max 417360000000
field sum 3.8110236e+014
field sqrsum 1.216602939024e+026
bin	-inf	0
bin	261000000000	1
bin	263000000000	0
bin	265000000000	0
bin	267000000000	0
bin	269000000000	2
bin	271000000000	1
bin	273000000000	1
bin	275000000000	1
bin	277000000000	4
bin	279000000000	6
bin	281000000000	5
bin	283000000000	13
bin	285000000000	15
bin	287000000000	19
bin	289000000000	28
bin	291000000000	32
bin	293000000000	32
bin	295000000000	36
bin	297000000000	41
bin	299000000000	36
bin	301000000000	52
bin	303000000000	50
bin	305000000000	59
bin	307000000000	38
bin	309000000000	48
bin	311000000000	55
bin	313000000000	51
bin	315000000000	46
bin	317000000000	43
bin	319000000000	33
bin	321000000000	41
bin	323000000000	42
bin	325000000000	39
bin	327000000000	31
bin	329000000000	30
bin	331000000000	26
bin	333000000000	27
bin	335000000000	25
bin	337000000000	18
bin	339000000000	22
bin	341000000000	14
bin	343000000000	14
bin	345000000000	15
bin	347000000000	7
bin	349000000000	9
bin	351000000000	8
bin	353000000000	9
bin	355000000000	7
bin	357000000000	7
bin	359000000000	6
bin	361000000000	3
bin	363000000000	3
bin	365000000000	7
bin	367000000000	1
bin	369000000000	0
bin	371000000000	1
bin	373000000000	2
bin	375000000000	1
bin	377000000000	3
bin	379000000000	3
bin	381000000000	5
bin	383000000000	5
bin	385000000000	1
bin	387000000000	1
bin	389000000000	2
bin	391000000000	0
bin	393000000000	2
bin	395000000000	4
bin	397000000000	0
bin	399000000000	2
bin	401000000000	2
bin	403000000000	2
bin	405000000000	1
bin	407000000000	0
bin	409000000000	1
bin	411000000000	1
bin	413000000000	1
bin	415000000000	0
bin	417000000000	1
bin	419000000000	0
statistic Network.rack[8].hub "bandwidth hist"
field count 1200
field mean 331471000000
field stddev 25201833822.629
field min 282600000000
field max 410160000000
field sum 3.977652e+014
field sqrsum 1.326091523904e+026
bin	-inf	0
bin	268000000000	0
bin	270000000000	0
bin	272000000000	0
bin	274000000000	0
bin	276000000000	0
bin	278000000000	0
bin	280000000000	0
bin	282000000000	1
bin	284000000000	1
bin	286000000000	1
bin	288000000000	1
bin	290000000000	3
bin	292000000000	4
bin	294000000000	6
bin	296000000000	11
bin	298000000000	12
bin	300000000000	26
bin	302000000000	25
bin	304000000000	19
bin	306000000000	31
bin	308000000000	49
bin	310000000000	50
bin	312000000000	47
bin	314000000000	52
bin	316000000000	65
bin	318000000000	66
bin	320000000000	60
bin	322000000000	56
bin	324000000000	56
bin	326000000000	50
bin	328000000000	34
bin	330000000000	36
bin	332000000000	39
bin	334000000000	28
bin	336000000000	25
bin	338000000000	25
bin	340000000000	21
bin	342000000000	20
bin	344000000000	15
bin	346000000000	25
bin	348000000000	18
bin	350000000000	18
bin	352000000000	11
bin	354000000000	7
bin	356000000000	10
bin	358000000000	9
bin	360000000000	6
bin	362000000000	11
bin	364000000000	5
bin	366000000000	6
bin	368000000000	7
bin	370000000000	6
bin	372000000000	8
bin	374000000000	9
bin	376000000000	8
bin	378000000000	6
bin	380000000000	6
bin	382000000000	10
bin	384000000000	11
bin	386000000000	9
bin	388000000000	7
bin	390000000000	8
bin	392000000000	10
bin	394000000000	5
bin	396000000000	6
bin	398000000000	3
bin	400000000000	3
bin	402000000000	6
bin	404000000000	3
bin	406000000000	3
bin	408000000000	4
bin	410000000000	1
bin	412000000000	0
bin	414000000000	0
bin	416000000000	0
bin	418000000000	0
bin	420000000000	0
bin	422000000000	0
bin	424000000000	0
bin	426000000000	0
bin	428000000000	0
bin	430000000000	0
bin	432000000000	0
bin	434000000000	0
bin	436000000000	0
bin	438000000000	0
bin	440000000000	0
statistic Network.rack[9].hub "bandwidth hist"
field count 1200
field mean 301450100000
field stddev 19778083404.182
field min 258360000000
field max 367200000000
field sum 3.6174012e+014
field sqrsum 1.095156112752e+026
bin	-inf	0
bin	236000000000	0
bin	238000000000	0
bin	240000000000	0
bin	242000000000	0
bin	244000000000	0
bin	246000000000	0
bin	248000000000	0
bin	250000000000	0
bin	252000000000	0
bin	254000000000	0
bin	256000000000	0
bin	258000000000	5
bin	260000000000	1
bin	262000000000	6
bin	264000000000	5
bin	266000000000	9
bin	268000000000	12
bin	270000000000	18
bin	272000000000	20
bin	274000000000	21
bin	276000000000	14
bin	278000000000	35
bin	280000000000	32
bin	282000000000	38
bin	284000000000	45
bin	286000000000	39
bin	288000000000	54
bin	290000000000	56
bin	292000000000	67
bin	294000000000	60
bin	296000000000	53
bin	298000000000	52
bin	300000000000	51
bin	302000000000	47
bin	304000000000	28
bin	306000000000	40
bin	308000000000	38
bin	310000000000	40
bin	312000000000	24
bin	314000000000	26
bin	316000000000	17
bin	318000000000	23
bin	320000000000	22
bin	322000000000	22
bin	324000000000	24
bin	326000000000	23
bin	328000000000	14
bin	330000000000	25
bin	332000000000	13
bin	334000000000	13
bin	336000000000	14
bin	338000000000	4
bin	340000000000	11
bin	342000000000	3
bin	344000000000	5
bin	346000000000	7
bin	348000000000	4
bin	350000000000	3
bin	352000000000	2
bin	354000000000	5
bin	356000000000	2
bin	358000000000	1
bin	360000000000	2
bin	362000000000	1
bin	364000000000	1
bin	366000000000	3
bin	368000000000	0
bin	370000000000	0
bin	372000000000	0
bin	374000000000	0
bin	376000000000	0
bin	378000000000	0
bin	380000000000	0
bin	382000000000	0
bin	384000000000	0
bin	386000000000	0
bin	388000000000	0
bin	390000000000	0
bin	392000000000	0
bin	394000000000	0
scalar Network.tor[0] "Bandwidth: " 0
statistic Network.tor[0] "flow count"
field count 1200
field mean 653.24416666667
field stddev 20.446954482152
field min 592
field max 701
field sum 783893
field sqrsum 512574805
bin	-inf	0
bin	592	1
bin	594	0
bin	596	1
bin	598	1
bin	600	3
bin	602	4
bin	604	3
bin	606	4
bin	608	6
bin	610	8
bin	612	7
bin	614	13
bin	616	10
bin	618	22
bin	620	16
bin	622	19
bin	624	23
bin	626	28
bin	628	22
bin	630	21
bin	632	24
bin	634	19
bin	636	23
bin	638	29
bin	640	18
bin	642	35
bin	644	38
bin	646	30
bin	648	28
bin	650	28
bin	652	39
bin	654	49
bin	656	45
bin	658	59
bin	660	52
bin	662	60
bin	664	58
bin	666	62
bin	668	53
bin	670	37
bin	672	33
bin	674	23
bin	676	23
bin	678	21
bin	680	25
bin	682	18
bin	684	10
bin	686	13
bin	688	9
bin	690	7
bin	692	2
bin	694	5
bin	696	3
bin	698	5
bin	700	5
bin	702	0
statistic Network.tor[0] cache_occupancy
field count 1200
field mean 300
field stddev 0
field min 300
field max 300
field sum 360000
field sqrsum 108000000
bin	-inf	0
bin	299	0
bin	300	1200
bin	301	0
statistic Network.tor[0] activity_time_of_a_rule_A
field count 163461
field mean 0.00010540385226669
field stddev 0.00047885396853121
field min 0
field max 0.031716447876
field sum 17.229419095366
field sqrsum 0.039297608739659
bin	-inf	0
bin	-0.5	0
bin	-0.48	0
bin	-0.46	0
bin	-0.44	0
bin	-0.42	0
bin	-0.4	0
bin	-0.38	0
bin	-0.36	0
bin	-0.34	0
bin	-0.32	0
bin	-0.3	0
bin	-0.28	0
bin	-0.26	0
bin	-0.24	0
bin	-0.22	0
bin	-0.2	0
bin	-0.18	0
bin	-0.16	0
bin	-0.14	0
bin	-0.12	0
bin	-0.1	0
bin	-0.08	0
bin	-0.06	0
bin	-0.04	0
bin	-0.02	0
bin	0	163458
bin	0.02	3
bin	0.04	0
bin	0.06	0
bin	0.08	0
bin	0.1	0
bin	0.12	0
bin	0.14	0
bin	0.16	0
bin	0.18	0
bin	0.2	0
bin	0.22	0
bin	0.24	0
bin	0.26	0
bin	0.28	0
bin	0.3	0
bin	0.32	0
bin	0.34	0
bin	0.36	0
bin	0.38	0
bin	0.4	0
bin	0.42	0
bin	0.44	0
bin	0.46	0
bin	0.48	0
bin	0.5	0
statistic Network.tor[0] activity_time_of_a_rule_B
field count 902822
field mean 7.7469178701107e-006
field stddev 5.2426848496696e-005
field min 0
field max 0.005699685001
field sum 6.9940878853291
field sqrsum 0.0025356533518945
bin	-inf	0
bin	-0.5	0
bin	-0.48	0
bin	-0.46	0
bin	-0.44	0
bin	-0.42	0
bin	-0.4	0
bin	-0.38	0
bin	-0.36	0
bin	-0.34	0
bin	-0.32	0
bin	-0.3	0
bin	-0.28	0
bin	-0.26	0
bin	-0.24	0
bin	-0.22	0
bin	-0.2	0
bin	-0.18	0
bin	-0.16	0
bin	-0.14	0
bin	-0.12	0
bin	-0.1	0
bin	-0.08	0
bin	-0.06	0
bin	-0.04	0
bin	-0.02	0
bin	0	902822
bin	0.02	0
bin	0.04	0
bin	0.06	0
bin	0.08	0
bin	0.1	0
bin	0.12	0
bin	0.14	0
bin	0.16	0
bin	0.18	0
bin	0.2	0
bin	0.22	0
bin	0.24	0
bin	0.26	0
bin	0.28	0
bin	0.3	0
bin	0.32	0
bin	0.34	0
bin	0.36	0
bin	0.38	0
bin	0.4	0
bin	0.42	0
bin	0.44	0
bin	0.46	0
bin	0.48	0
bin	0.5	0
statistic Network.tor[0] bandwidth_histogram
field count 1200
field mean 334.7716
field stddev 17.604596150183
field min 292.2
field max 409.68
field sum 401725.92
field sqrsum 134858025.2448
bin	-inf	0
bin	292	2
bin	294	0
bin	296	7
bin	298	4
bin	300	5
bin	302	6
bin	304	14
bin	306	17
bin	308	18
bin	310	20
bin	312	29
bin	314	32
bin	316	44
bin	318	47
bin	320	54
bin	322	49
bin	324	43
bin	326	59
bin	328	65
bin	330	55
bin	332	68
bin	334	49
bin	336	41
bin	338	52
bin	340	41
bin	342	44
bin	344	34
bin	346	35
bin	348	35
bin	350	35
bin	352	27
bin	354	23
bin	356	21
bin	358	25
bin	360	19
bin	362	16
bin	364	9
bin	366	9
bin	368	9
bin	370	7
bin	372	4
bin	374	5
bin	376	3
bin	378	2
bin	380	2
bin	382	2
bin	384	3
bin	386	2
bin	388	2
bin	390	2
bin	392	0
bin	394	1
bin	396	1
bin	398	0
bin	400	0
bin	402	1
bin	404	0
bin	406	0
bin	408	1
bin	410	0
scalar Network.tor[0] "cache_content_by_app: " 0.62551440329218
scalar Network.tor[1] "Bandwidth: " 0
statistic Network.tor[1] "flow count"
field count 1200
field mean 630.71416666667
field stddev 20.126434369735
field min 571
field max 683
field sum 756857
field sqrsum 477846115
bin	-inf	0
bin	570	1
bin	572	1
bin	574	0
bin	576	2
bin	578	2
bin	580	0
bin	582	3
bin	584	1
bin	586	6
bin	588	9
bin	590	16
bin	592	10
bin	594	11
bin	596	23
bin	598	18
bin	600	20
bin	602	15
bin	604	26
bin	606	26
bin	608	26
bin	610	24
bin	612	29
bin	614	26
bin	616	23
bin	618	23
bin	620	38
bin	622	35
bin	624	29
bin	626	32
bin	628	37
bin	630	45
bin	632	34
bin	634	50
bin	636	45
bin	638	53
bin	640	47
bin	642	54
bin	644	55
bin	646	47
bin	648	46
bin	650	33
bin	652	39
bin	654	36
bin	656	20
bin	658	22
bin	660	15
bin	662	12
bin	664	11
bin	666	4
bin	668	7
bin	670	10
bin	672	1
bin	674	0
bin	676	1
bin	678	0
bin	680	0
bin	682	1
bin	684	0
bin	686	0
statistic Network.tor[1] cache_occupancy
field count 1200
field mean 300
field stddev 0
field min 300
field max 300
field sum 360000
field sqrsum 108000000
bin	-inf	0
bin	299	0
bin	300	1200
bin	301	0
statistic Network.tor[1] activity_time_of_a_rule_A
field count 156800
field mean 0.00010420551827268
field stddev 0.00056449735491049
field min 0
field max 0.033936839604
field sum 16.339425265156
field sqrsum 0.051667798569077
bin	-inf	0
bin	-0.5	0
bin	-0.48	0
bin	-0.46	0
bin	-0.44	0
bin	-0.42	0
bin	-0.4	0
bin	-0.38	0
bin	-0.36	0
bin	-0.34	0
bin	-0.32	0
bin	-0.3	0
bin	-0.28	0
bin	-0.26	0
bin	-0.24	0
bin	-0.22	0
bin	-0.2	0
bin	-0.18	0
bin	-0.16	0
bin	-0.14	0
bin	-0.12	0
bin	-0.1	0
bin	-0.08	0
bin	-0.06	0
bin	-0.04	0
bin	-0.02	0
bin	0	156791
bin	0.02	9
bin	0.04	0
bin	0.06	0
bin	0.08	0
bin	0.1	0
bin	0.12	0
bin	0.14	0
bin	0.16	0
bin	0.18	0
bin	0.2	0
bin	0.22	0
bin	0.24	0
bin	0.26	0
bin	0.28	0
bin	0.3	0
bin	0.32	0
bin	0.34	0
bin	0.36	0
bin	0.38	0
bin	0.4	0
bin	0.42	0
bin	0.44	0
bin	0.46	0
bin	0.48	0
bin	0.5	0
statistic Network.tor[1] activity_time_of_a_rule_B
field count 897685
field mean 8.8492843955842e-006
field stddev 6.3161038148821e-005
field min 0
field max 0.005538536755
field sum 7.94386986265
field sqrsum 0.0036514433720793
bin	-inf	0
bin	-0.5	0
bin	-0.48	0
bin	-0.46	0
bin	-0.44	0
bin	-0.42	0
bin	-0.4	0
bin	-0.38	0
bin	-0.36	0
bin	-0.34	0
bin	-0.32	0
bin	-0.3	0
bin	-0.28	0
bin	-0.26	0
bin	-0.24	0
bin	-0.22	0
bin	-0.2	0
bin	-0.18	0
bin	-0.16	0
bin	-0.14	0
bin	-0.12	0
bin	-0.1	0
bin	-0.08	0
bin	-0.06	0
bin	-0.04	0
bin	-0.02	0
bin	0	897685
bin	0.02	0
bin	0.04	0
bin	0.06	0
bin	0.08	0
bin	0.1	0
bin	0.12	0
bin	0.14	0
bin	0.16	0
bin	0.18	0
bin	0.2	0
bin	0.22	0
bin	0.24	0
bin	0.26	0
bin	0.28	0
bin	0.3	0
bin	0.32	0
bin	0.34	0
bin	0.36	0
bin	0.38	0
bin	0.4	0
bin	0.42	0
bin	0.44	0
bin	0.46	0
bin	0.48	0
bin	0.5	0
statistic Network.tor[1] bandwidth_histogram
field count 1200
field mean 337.8951
field stddev 25.843726469332
field min 285.96
field max 440.76
field sum 405474.12
field sqrsum 137808528.264
bin	-inf	0
bin	284	1
bin	286	1
bin	288	0
bin	290	2
bin	292	3
bin	294	7
bin	296	5
bin	298	6
bin	300	15
bin	302	12
bin	304	18
bin	306	18
bin	308	21
bin	310	36
bin	312	30
bin	314	43
bin	316	37
bin	318	52
bin	320	37
bin	322	55
bin	324	47
bin	326	40
bin	328	61
bin	330	46
bin	332	34
bin	334	41
bin	336	41
bin	338	32
bin	340	35
bin	342	31
bin	344	36
bin	346	26
bin	348	25
bin	350	30
bin	352	21
bin	354	18
bin	356	20
bin	358	12
bin	360	18
bin	362	12
bin	364	6
bin	366	13
bin	368	14
bin	370	9
bin	372	14
bin	374	8
bin	376	10
bin	378	9
bin	380	6
bin	382	10
bin	384	5
bin	386	4
bin	388	6
bin	390	6
bin	392	5
bin	394	2
bin	396	5
bin	398	6
bin	400	3
bin	402	2
bin	404	4
bin	406	2
bin	408	3
bin	410	2
bin	412	3
bin	414	2
bin	416	2
bin	418	5
bin	420	1
bin	422	3
bin	424	1
bin	426	1
bin	428	0
bin	430	1
bin	432	0
bin	434	0
bin	436	1
bin	438	0
bin	440	1
bin	442	0
scalar Network.tor[1] "cache_content_by_app: " 0.59166666666667
scalar Network.tor[2] "Bandwidth: " 0
statistic Network.tor[2] "flow count"
field count 1200
field mean 631.46333333333
field stddev 18.6934889109
field min 569
field max 678
field sum 757756
field sqrsum 478914116
bin	-inf	0
bin	569	1
bin	571	1
bin	573	0
bin	575	0
bin	577	0
bin	579	2
bin	581	0
bin	583	3
bin	585	4
bin	587	6
bin	589	8
bin	591	10
bin	593	13
bin	595	21
bin	597	10
bin	599	11
bin	601	16
bin	603	13
bin	605	18
bin	607	23
bin	609	16
bin	611	20
bin	613	29
bin	615	20
bin	617	28
bin	619	20
bin	621	37
bin	623	47
bin	625	46
bin	627	52
bin	629	50
bin	631	49
bin	633	57
bin	635	53
bin	637	59
bin	639	63
bin	641	43
bin	643	54
bin	645	44
bin	647	45
bin	649	45
bin	651	28
bin	653	24
bin	655	30
bin	657	8
bin	659	19
bin	661	13
bin	663	12
bin	665	7
bin	667	5
bin	669	3
bin	671	4
bin	673	7
bin	675	1
bin	677	2
bin	679	0
statistic Network.tor[2] cache_occupancy
field count 1200
field mean 300
field stddev 0
field min 300
field max 300
field sum 360000
field sqrsum 108000000
bin	-inf	0
bin	299	0
bin	300	1200
bin	301	0
statistic Network.tor[2] activity_time_of_a_rule_A
field count 157311
field mean 0.00010322336288859
field stddev 0.00053258857578549
field min 0
field max 0.025069701019
field sum 16.238170439367
field sqrsum 0.04629723303912
bin	-inf	0
bin	-0.5	0
bin	-0.48	0
bin	-0.46	0
bin	-0.44	0
bin	-0.42	0
bin	-0.4	0
bin	-0.38	0
bin	-0.36	0
bin	-0.34	0
bin	-0.32	0
bin	-0.3	0
bin	-0.28	0
bin	-0.26	0
bin	-0.24	0
bin	-0.22	0
bin	-0.2	0
bin	-0.18	0
bin	-0.16	0
bin	-0.14	0
bin	-0.12	0
bin	-0.1	0
bin	-0.08	0
bin	-0.06	0
bin	-0.04	0
bin	-0.02	0
bin	0	157308
bin	0.02	3
bin	0.04	0
bin	0.06	0
bin	0.08	0
bin	0.1	0
bin	0.12	0
bin	0.14	0
bin	0.16	0
bin	0.18	0
bin	0.2	0
bin	0.22	0
bin	0.24	0
bin	0.26	0
bin	0.28	0
bin	0.3	0
bin	0.32	0
bin	0.34	0
bin	0.36	0
bin	0.38	0
bin	0.4	0
bin	0.42	0
bin	0.44	0
bin	0.46	0
bin	0.48	0
bin	0.5	0
statistic Network.tor[2] activity_time_of_a_rule_B
field count 898508
field mean 8.9107747954364e-006
field stddev 6.1670423299061e-005
field min 0
field max 0.005883890501
field sum 8.006402439898
field sqrsum 0.0034885820089833
bin	-inf	0
bin	-0.5	0
bin	-0.48	0
bin	-0.46	0
bin	-0.44	0
bin	-0.42	0
bin	-0.4	0
bin	-0.38	0
bin	-0.36	0
bin	-0.34	0
bin	-0.32	0
bin	-0.3	0
bin	-0.28	0
bin	-0.26	0
bin	-0.24	0
bin	-0.22	0
bin	-0.2	0
bin	-0.18	0
bin	-0.16	0
bin	-0.14	0
bin	-0.12	0
bin	-0.1	0
bin	-0.08	0
bin	-0.06	0
bin	-0.04	0
bin	-0.02	0
bin	0	898508
bin	0.02	0
bin	0.04	0
bin	0.06	0
bin	0.08	0
bin	0.1	0
bin	0.12	0
bin	0.14	0
bin	0.16	0
bin	0.18	0
bin	0.2	0
bin	0.22	0
bin	0.24	0
bin	0.26	0
bin	0.28	0
bin	0.3	0
bin	0.32	0
bin	0.34	0
bin	0.36	0
bin	0.38	0
bin	0.4	0
bin	0.42	0
bin	0.44	0
bin	0.46	0
bin	0.48	0
bin	0.5	0
statistic Network.tor[2] bandwidth_histogram
field count 1200
field mean 323.1209
field stddev 16.864917918679
field min 277.32
field max 378.6
field sum 387745.08
field sqrsum 125629565.3424
bin	-inf	0
bin	276	1
bin	278	0
bin	280	0
bin	282	3
bin	284	3
bin	286	2
bin	288	5
bin	290	7
bin	292	13
bin	294	8
bin	296	23
bin	298	20
bin	300	40
bin	302	39
bin	304	33
bin	306	45
bin	308	40
bin	310	40
bin	312	43
bin	314	48
bin	316	53
bin	318	57
bin	320	72
bin	322	72
bin	324	46
bin	326	57
bin	328	46
bin	330	50
bin	332	48
bin	334	37
bin	336	22
bin	338	36
bin	340	23
bin	342	26
bin	344	21
bin	346	18
bin	348	14
bin	350	16
bin	352	14
bin	354	15
bin	356	11
bin	358	4
bin	360	9
bin	362	4
bin	364	6
bin	366	4
bin	368	2
bin	370	1
bin	372	2
bin	374	0
bin	376	0
bin	378	1
bin	380	0
scalar Network.tor[2] "cache_content_by_app: " 0.61802575107296
scalar Network.tor[3] "Bandwidth: " 0
statistic Network.tor[3] "flow count"
field count 1200
field mean 627.20583333333
field stddev 16.750789735698
field min 578
field max 682
field sum 752647
field sqrsum 472401015
bin	-inf	0
bin	556	0
bin	558	0
bin	560	0
bin	562	0
bin	564	0
bin	566	0
bin	568	0
bin	570	0
bin	572	0
bin	574	0
bin	576	0
bin	578	1
bin	580	1
bin	582	1
bin	584	3
bin	586	3
bin	588	2
bin	590	5
bin	592	5
bin	594	7
bin	596	13
bin	598	12
bin	600	23
bin	602	25
bin	604	25
bin	606	25
bin	608	32
bin	610	36
bin	612	37
bin	614	49
bin	616	54
bin	618	40
bin	620	36
bin	622	52
bin	624	57
bin	626	68
bin	628	48
bin	630	54
bin	632	54
bin	634	48
bin	636	52
bin	638	52
bin	640	46
bin	642	34
bin	644	34
bin	646	25
bin	648	23
bin	650	31
bin	652	17
bin	654	15
bin	656	12
bin	658	10
bin	660	12
bin	662	5
bin	664	5
bin	666	3
bin	668	3
bin	670	2
bin	672	0
bin	674	2
bin	676	0
bin	678	0
bin	680	0
bin	682	1
bin	684	0
statistic Network.tor[3] cache_occupancy
field count 1200
field mean 300
field stddev 0
field min 300
field max 300
field sum 360000
field sqrsum 108000000
bin	-inf	0
bin	299	0
bin	300	1200
bin	301	0
statistic Network.tor[3] activity_time_of_a_rule_A
field count 155496
field mean 0.00010298907235597
field stddev 0.00056748223593985
field min 0
field max 0.030988763677
field sum 16.014388795064
field sqrsum 0.051724308566595
bin	-inf	0
bin	-0.5	0
bin	-0.48	0
bin	-0.46	0
bin	-0.44	0
bin	-0.42	0
bin	-0.4	0
bin	-0.38	0
bin	-0.36	0
bin	-0.34	0
bin	-0.32	0
bin	-0.3	0
bin	-0.28	0
bin	-0.26	0
bin	-0.24	0
bin	-0.22	0
bin	-0.2	0
bin	-0.18	0
bin	-0.16	0
bin	-0.14	0
bin	-0.12	0
bin	-0.1	0
bin	-0.08	0
bin	-0.06	0
bin	-0.04	0
bin	-0.02	0
bin	0	155491
bin	0.02	5
bin	0.04	0
bin	0.06	0
bin	0.08	0
bin	0.1	0
bin	0.12	0
bin	0.14	0
bin	0.16	0
bin	0.18	0
bin	0.2	0
bin	0.22	0
bin	0.24	0
bin	0.26	0
bin	0.28	0
bin	0.3	0
bin	0.32	0
bin	0.34	0
bin	0.36	0
bin	0.38	0
bin	0.4	0
bin	0.42	0
bin	0.44	0
bin	0.46	0
bin	0.48	0
bin	0.5	0
statistic Network.tor[3] activity_time_of_a_rule_B
field count 897149
field mean 9.0748321345429e-006
field stddev 6.3223287837975e-005
field min 0
field max 0.004930417028
field sum 8.141476574673
field sqrsum 0.0036599482766569
bin	-inf	0
bin	-0.5	0
bin	-0.48	0
bin	-0.46	0
bin	-0.44	0
bin	-0.42	0
bin	-0.4	0
bin	-0.38	0
bin	-0.36	0
bin	-0.34	0
bin	-0.32	0
bin	-0.3	0
bin	-0.28	0
bin	-0.26	0
bin	-0.24	0
bin	-0.22	0
bin	-0.2	0
bin	-0.18	0
bin	-0.16	0
bin	-0.14	0
bin	-0.12	0
bin	-0.1	0
bin	-0.08	0
bin	-0.06	0
bin	-0.04	0
bin	-0.02	0
bin	0	897149
bin	0.02	0
bin	0.04	0
bin	0.06	0
bin	0.08	0
bin	0.1	0
bin	0.12	0
bin	0.14	0
bin	0.16	0
bin	0.18	0
bin	0.2	0
bin	0.22	0
bin	0.24	0
bin	0.26	0
bin	0.28	0
bin	0.3	0
bin	0.32	0
bin	0.34	0
bin	0.36	0
bin	0.38	0
bin	0.4	0
bin	0.42	0
bin	0.44	0
bin	0.46	0
bin	0.48	0
bin	0.5	0
statistic Network.tor[3] bandwidth_histogram
field count 1200
field mean 316.8861
field stddev 16.293091894816
field min 271.56
field max 373.08
field sum 380263.32
field sqrsum 120818452.7952
bin	-inf	0
bin	259	0
bin	261	0
bin	263	0
bin	265	0
bin	267	0
bin	269	0
bin	271	2
bin	273	2
bin	275	6
bin	277	2
bin	279	3
bin	281	6
bin	283	10
bin	285	9
bin	287	16
bin	289	19
bin	291	16
bin	293	14
bin	295	25
bin	297	27
bin	299	36
bin	301	40
bin	303	37
bin	305	51
bin	307	48
bin	309	53
bin	311	51
bin	313	56
bin	315	64
bin	317	67
bin	319	69
bin	321	63
bin	323	61
bin	325	44
bin	327	51
bin	329	41
bin	331	35
bin	333	21
bin	335	35
bin	337	15
bin	339	20
bin	341	9
bin	343	19
bin	345	15
bin	347	10
bin	349	6
bin	351	8
bin	353	5
bin	355	2
bin	357	2
bin	359	0
bin	361	1
bin	363	1
bin	365	2
bin	367	1
bin	369	3
bin	371	0
bin	373	1
bin	375	0
scalar Network.tor[3] "cache_content_by_app: " 0.61924686192469
scalar Network.tor[4] "Bandwidth: " 0
statistic Network.tor[4] "flow count"
field count 1200
field mean 646.14916666667
field stddev 17.179285661869
field min 597
field max 699
field sum 775379
field sqrsum 501364353
bin	-inf	0
bin	597	1
bin	599	0
bin	601	1
bin	603	1
bin	605	3
bin	607	5
bin	609	11
bin	611	9
bin	613	7
bin	615	13
bin	617	17
bin	619	19
bin	621	19
bin	623	25
bin	625	29
bin	627	35
bin	629	29
bin	631	33
bin	633	30
bin	635	52
bin	637	47
bin	639	68
bin	641	48
bin	643	56
bin	645	70
bin	647	56
bin	649	44
bin	651	47
bin	653	39
bin	655	44
bin	657	40
bin	659	58
bin	661	40
bin	663	29
bin	665	27
bin	667	24
bin	669	30
bin	671	28
bin	673	9
bin	675	13
bin	677	8
bin	679	5
bin	681	7
bin	683	8
bin	685	4
bin	687	3
bin	689	4
bin	691	1
bin	693	0
bin	695	1
bin	697	2
bin	699	1
bin	701	0
statistic Network.tor[4] cache_occupancy
field count 1200
field mean 300
field stddev 0
field min 300
field max 300
field sum 360000
field sqrsum 108000000
bin	-inf	0
bin	299	0
bin	300	1200
bin	301	0
statistic Network.tor[4] activity_time_of_a_rule_A
field count 158392
field mean 0.00010316920500705
field stddev 0.00051646826452487
field min 0
field max 0.020762518342
field sum 16.341176719476
field sqrsum 0.043935037328409
bin	-inf	0
bin	-0.5	0
bin	-0.48	0
bin	-0.46	0
bin	-0.44	0
bin	-0.42	0
bin	-0.4	0
bin	-0.38	0
bin	-0.36	0
bin	-0.34	0
bin	-0.32	0
bin	-0.3	0
bin	-0.28	0
bin	-0.26	0
bin	-0.24	0
bin	-0.22	0
bin	-0.2	0
bin	-0.18	0
bin	-0.16	0
bin	-0.14	0
bin	-0.12	0
bin	-0.1	0
bin	-0.08	0
bin	-0.06	0
bin	-0.04	0
bin	-0.02	0
bin	0	158391
bin	0.02	1
bin	0.04	0
bin	0.06	0
bin	0.08	0
bin	0.1	0
bin	0.12	0
bin	0.14	0
bin	0.16	0
bin	0.18	0
bin	0.2	0
bin	0.22	0
bin	0.24	0
bin	0.26	0
bin	0.28	0
bin	0.3	0
bin	0.32	0
bin	0.34	0
bin	0.36	0
bin	0.38	0
bin	0.4	0
bin	0.42	0
bin	0.44	0
bin	0.46	0
bin	0.48	0
bin	0.5	0
statistic Network.tor[4] activity_time_of_a_rule_B
field count 900159
field mean 8.6466982948035e-006
field stddev 6.079046734007e-005
field min 0
field max 0.005094185172
field sum 7.783403290352
field sqrsum 0.0033938174534254
bin	-inf	0
bin	-0.5	0
bin	-0.48	0
bin	-0.46	0
bin	-0.44	0
bin	-0.42	0
bin	-0.4	0
bin	-0.38	0
bin	-0.36	0
bin	-0.34	0
bin	-0.32	0
bin	-0.3	0
bin	-0.28	0
bin	-0.26	0
bin	-0.24	0
bin	-0.22	0
bin	-0.2	0
bin	-0.18	0
bin	-0.16	0
bin	-0.14	0
bin	-0.12	0
bin	-0.1	0
bin	-0.08	0
bin	-0.06	0
bin	-0.04	0
bin	-0.02	0
bin	0	900159
bin	0.02	0
bin	0.04	0
bin	0.06	0
bin	0.08	0
bin	0.1	0
bin	0.12	0
bin	0.14	0
bin	0.16	0
bin	0.18	0
bin	0.2	0
bin	0.22	0
bin	0.24	0
bin	0.26	0
bin	0.28	0
bin	0.3	0
bin	0.32	0
bin	0.34	0
bin	0.36	0
bin	0.38	0
bin	0.4	0
bin	0.42	0
bin	0.44	0
bin	0.46	0
bin	0.48	0
bin	0.5	0
statistic Network.tor[4] bandwidth_histogram
field count 1200
field mean 330.3124
field stddev 26.522409633188
field min 273.84
field max 441.36
field sum 396374.88
field sqrsum 131770960.3296
bin	-inf	0
bin	270	1
bin	274	2
bin	278	2
bin	282	8
bin	286	13
bin	290	32
bin	294	41
bin	298	49
bin	302	68
bin	306	64
bin	310	67
bin	314	77
bin	318	74
bin	322	74
bin	326	64
bin	330	104
bin	334	68
bin	338	63
bin	342	60
bin	346	47
bin	350	35
bin	354	27
bin	358	29
bin	362	15
bin	366	13
bin	370	14
bin	374	12
bin	378	11
bin	382	11
bin	386	13
bin	390	10
bin	394	4
bin	398	7
bin	402	4
bin	406	4
bin	410	4
bin	414	4
bin	418	0
bin	422	1
bin	426	2
bin	430	0
bin	434	1
bin	438	1
bin	442	0
bin	446	0
bin	450	0
bin	454	0
bin	458	0
bin	462	0
bin	466	0
bin	470	0
bin	474	0
scalar Network.tor[4] "cache_content_by_app: " 0.66523605150215
scalar Network.tor[5] "Bandwidth: " 0
statistic Network.tor[5] "flow count"
field count 1200
field mean 638.615
field stddev 18.023479496969
field min 583
field max 692
field sum 766338
field sqrsum 489784432
bin	-inf	0
bin	582	2
bin	584	1
bin	586	0
bin	588	0
bin	590	1
bin	592	1
bin	594	5
bin	596	5
bin	598	1
bin	600	11
bin	602	3
bin	604	16
bin	606	12
bin	608	20
bin	610	22
bin	612	14
bin	614	22
bin	616	30
bin	618	25
bin	620	25
bin	622	26
bin	624	29
bin	626	41
bin	628	46
bin	630	40
bin	632	44
bin	634	54
bin	636	55
bin	638	63
bin	640	48
bin	642	51
bin	644	60
bin	646	47
bin	648	41
bin	650	40
bin	652	42
bin	654	42
bin	656	37
bin	658	35
bin	660	17
bin	662	23
bin	664	31
bin	666	17
bin	668	10
bin	670	9
bin	672	13
bin	674	6
bin	676	8
bin	678	1
bin	680	3
bin	682	1
bin	684	2
bin	686	0
bin	688	1
bin	690	0
bin	692	1
bin	694	0
bin	696	0
bin	698	0
bin	700	0
bin	702	0
bin	704	0
bin	706	0
bin	708	0
bin	710	0
bin	712	0
statistic Network.tor[5] cache_occupancy
field count 1200
field mean 300
field stddev 0
field min 300
field max 300
field sum 360000
field sqrsum 108000000
bin	-inf	0
bin	299	0
bin	300	1200
bin	301	0
statistic Network.tor[5] activity_time_of_a_rule_A
field count 158172
field mean 0.00010354288652722
field stddev 0.000537967378052
field min 0
field max 0.028159497824
field sum 16.377585447784
field sqrsum 0.04747187756949
bin	-inf	0
bin	-0.5	0
bin	-0.48	0
bin	-0.46	0
bin	-0.44	0
bin	-0.42	0
bin	-0.4	0
bin	-0.38	0
bin	-0.36	0
bin	-0.34	0
bin	-0.32	0
bin	-0.3	0
bin	-0.28	0
bin	-0.26	0
bin	-0.24	0
bin	-0.22	0
bin	-0.2	0
bin	-0.18	0
bin	-0.16	0
bin	-0.14	0
bin	-0.12	0
bin	-0.1	0
bin	-0.08	0
bin	-0.06	0
bin	-0.04	0
bin	-0.02	0
bin	0	158164
bin	0.02	8
bin	0.04	0
bin	0.06	0
bin	0.08	0
bin	0.1	0
bin	0.12	0
bin	0.14	0
bin	0.16	0
bin	0.18	0
bin	0.2	0
bin	0.22	0
bin	0.24	0
bin	0.26	0
bin	0.28	0
bin	0.3	0
bin	0.32	0
bin	0.34	0
bin	0.36	0
bin	0.38	0
bin	0.4	0
bin	0.42	0
bin	0.44	0
bin	0.46	0
bin	0.48	0
bin	0.5	0
statistic Network.tor[5] activity_time_of_a_rule_B
field count 899101
field mean 8.6708995832059e-006
field stddev 5.996797617361e-005
field min 0
field max 0.004472504707
field sum 7.79601448616
field sqrsum 0.0033009042661318
bin	-inf	0
bin	-0.5	0
bin	-0.48	0
bin	-0.46	0
bin	-0.44	0
bin	-0.42	0
bin	-0.4	0
bin	-0.38	0
bin	-0.36	0
bin	-0.34	0
bin	-0.32	0
bin	-0.3	0
bin	-0.28	0
bin	-0.26	0
bin	-0.24	0
bin	-0.22	0
bin	-0.2	0
bin	-0.18	0
bin	-0.16	0
bin	-0.14	0
bin	-0.12	0
bin	-0.1	0
bin	-0.08	0
bin	-0.06	0
bin	-0.04	0
bin	-0.02	0
bin	0	899101
bin	0.02	0
bin	0.04	0
bin	0.06	0
bin	0.08	0
bin	0.1	0
bin	0.12	0
bin	0.14	0
bin	0.16	0
bin	0.18	0
bin	0.2	0
bin	0.22	0
bin	0.24	0
bin	0.26	0
bin	0.28	0
bin	0.3	0
bin	0.32	0
bin	0.34	0
bin	0.36	0
bin	0.38	0
bin	0.4	0
bin	0.42	0
bin	0.44	0
bin	0.46	0
bin	0.48	0
bin	0.5	0
statistic Network.tor[5] bandwidth_histogram
field count 1200
field mean 327.0206
field stddev 22.446720005521
field min 264.72
field max 405
field sum 392424.72
field sqrsum 128935089.8208
bin	-inf	0
bin	263	1
bin	265	0
bin	267	0
bin	269	0
bin	271	0
bin	273	0
bin	275	1
bin	277	4
bin	279	3
bin	281	7
bin	283	6
bin	285	3
bin	287	10
bin	289	15
bin	291	23
bin	293	17
bin	295	17
bin	297	27
bin	299	28
bin	301	18
bin	303	25
bin	305	32
bin	307	21
bin	309	25
bin	311	48
bin	313	28
bin	315	43
bin	317	29
bin	319	50
bin	321	41
bin	323	52
bin	325	41
bin	327	46
bin	329	47
bin	331	48
bin	333	38
bin	335	48
bin	337	39
bin	339	36
bin	341	27
bin	343	19
bin	345	24
bin	347	21
bin	349	20
bin	351	17
bin	353	19
bin	355	13
bin	357	18
bin	359	12
bin	361	8
bin	363	11
bin	365	6
bin	367	6
bin	369	10
bin	371	9
bin	373	9
bin	375	9
bin	377	5
bin	379	2
bin	381	5
bin	383	5
bin	385	3
bin	387	2
bin	389	0
bin	391	1
bin	393	0
bin	395	1
bin	397	0
bin	399	0
bin	401	0
bin	403	0
bin	405	1
bin	407	0
scalar Network.tor[5] "cache_content_by_app: " 0.60251046025105
scalar Network.tor[6] "Bandwidth: " 0
statistic Network.tor[6] "flow count"
field count 1200
field mean 633.49666666667
field stddev 16.583651693012
field min 581
field max 683
field sum 760196
field sqrsum 481911378
bin	-inf	0
bin	576	0
bin	578	0
bin	580	1
bin	582	0
bin	584	1
bin	586	0
bin	588	1
bin	590	2
bin	592	0
bin	594	3
bin	596	3
bin	598	6
bin	600	5
bin	602	7
bin	604	13
bin	606	16
bin	608	21
bin	610	32
bin	612	22
bin	614	34
bin	616	41
bin	618	36
bin	620	48
bin	622	48
bin	624	59
bin	626	54
bin	628	58
bin	630	55
bin	632	52
bin	634	56
bin	636	63
bin	638	40
bin	640	52
bin	642	45
bin	644	42
bin	646	40
bin	648	34
bin	650	26
bin	652	27
bin	654	31
bin	656	18
bin	658	26
bin	660	18
bin	662	18
bin	664	11
bin	666	9
bin	668	7
bin	670	6
bin	672	4
bin	674	4
bin	676	2
bin	678	1
bin	680	0
bin	682	2
bin	684	0
statistic Network.tor[6] cache_occupancy
field count 1200
field mean 300
field stddev 0
field min 300
field max 300
field sum 360000
field sqrsum 108000000
bin	-inf	0
bin	299	0
bin	300	1200
bin	301	0
statistic Network.tor[6] activity_time_of_a_rule_A
field count 156686
field mean 0.00010153690929327
field stddev 0.00054308487209305
field min 0
field max 0.035714922434
field sum 15.909412169525
field sqrsum 0.047828251061727
bin	-inf	0
bin	-0.5	0
bin	-0.48	0
bin	-0.46	0
bin	-0.44	0
bin	-0.42	0
bin	-0.4	0
bin	-0.38	0
bin	-0.36	0
bin	-0.34	0
bin	-0.32	0
bin	-0.3	0
bin	-0.28	0
bin	-0.26	0
bin	-0.24	0
bin	-0.22	0
bin	-0.2	0
bin	-0.18	0
bin	-0.16	0
bin	-0.14	0
bin	-0.12	0
bin	-0.1	0
bin	-0.08	0
bin	-0.06	0
bin	-0.04	0
bin	-0.02	0
bin	0	156681
bin	0.02	5
bin	0.04	0
bin	0.06	0
bin	0.08	0
bin	0.1	0
bin	0.12	0
bin	0.14	0
bin	0.16	0
bin	0.18	0
bin	0.2	0
bin	0.22	0
bin	0.24	0
bin	0.26	0
bin	0.28	0
bin	0.3	0
bin	0.32	0
bin	0.34	0
bin	0.36	0
bin	0.38	0
bin	0.4	0
bin	0.42	0
bin	0.44	0
bin	0.46	0
bin	0.48	0
bin	0.5	0
statistic Network.tor[6] activity_time_of_a_rule_B
field count 898476
field mean 9.1540629746571e-006
field stddev 6.30328098119e-005
field min 0
field max 0.005129162977
field sum 8.224705885218
field sqrsum 0.0036450520460792
bin	-inf	0
bin	-0.5	0
bin	-0.48	0
bin	-0.46	0
bin	-0.44	0
bin	-0.42	0
bin	-0.4	0
bin	-0.38	0
bin	-0.36	0
bin	-0.34	0
bin	-0.32	0
bin	-0.3	0
bin	-0.28	0
bin	-0.26	0
bin	-0.24	0
bin	-0.22	0
bin	-0.2	0
bin	-0.18	0
bin	-0.16	0
bin	-0.14	0
bin	-0.12	0
bin	-0.1	0
bin	-0.08	0
bin	-0.06	0
bin	-0.04	0
bin	-0.02	0
bin	0	898476
bin	0.02	0
bin	0.04	0
bin	0.06	0
bin	0.08	0
bin	0.1	0
bin	0.12	0
bin	0.14	0
bin	0.16	0
bin	0.18	0
bin	0.2	0
bin	0.22	0
bin	0.24	0
bin	0.26	0
bin	0.28	0
bin	0.3	0
bin	0.32	0
bin	0.34	0
bin	0.36	0
bin	0.38	0
bin	0.4	0
bin	0.42	0
bin	0.44	0
bin	0.46	0
bin	0.48	0
bin	0.5	0
statistic Network.tor[6] bandwidth_histogram
field count 1200
field mean 316.4279
field stddev 22.022088575889
field min 269.76
field max 387.96
field sum 379713.48
field sqrsum 120733420.968
bin	-inf	0
bin	244	0
bin	246	0
bin	248	0
bin	250	0
bin	252	0
bin	254	0
bin	256	0
bin	258	0
bin	260	0
bin	262	0
bin	264	0
bin	266	0
bin	268	1
bin	270	2
bin	272	2
bin	274	4
bin	276	10
bin	278	13
bin	280	15
bin	282	21
bin	284	27
bin	286	17
bin	288	30
bin	290	34
bin	292	29
bin	294	27
bin	296	35
bin	298	42
bin	300	41
bin	302	33
bin	304	51
bin	306	32
bin	308	33
bin	310	20
bin	312	51
bin	314	44
bin	316	43
bin	318	46
bin	320	48
bin	322	36
bin	324	40
bin	326	27
bin	328	34
bin	330	14
bin	332	28
bin	334	24
bin	336	29
bin	338	24
bin	340	23
bin	342	23
bin	344	25
bin	346	14
bin	348	18
bin	350	17
bin	352	7
bin	354	7
bin	356	9
bin	358	7
bin	360	9
bin	362	8
bin	364	5
bin	366	7
bin	368	4
bin	370	1
bin	372	2
bin	374	3
bin	376	1
bin	378	1
bin	380	0
bin	382	1
bin	384	0
bin	386	1
bin	388	0
bin	390	0
bin	392	0
bin	394	0
scalar Network.tor[6] "cache_content_by_app: " 0.69787234042553
scalar Network.tor[7] "Bandwidth: " 0
statistic Network.tor[7] "flow count"
field count 1200
field mean 629.69583333333
field stddev 12.467538472712
field min 589
field max 670
field sum 755635
field sqrsum 476006583
bin	-inf	0
bin	588	1
bin	590	0
bin	592	1
bin	594	2
bin	596	1
bin	598	4
bin	600	5
bin	602	11
bin	604	12
bin	606	9
bin	608	13
bin	610	19
bin	612	31
bin	614	42
bin	616	41
bin	618	51
bin	620	53
bin	622	78
bin	624	86
bin	626	69
bin	628	86
bin	630	55
bin	632	74
bin	634	71
bin	636	71
bin	638	52
bin	640	48
bin	642	44
bin	644	44
bin	646	26
bin	648	34
bin	650	22
bin	652	14
bin	654	7
bin	656	10
bin	658	2
bin	660	3
bin	662	3
bin	664	2
bin	666	1
bin	668	0
bin	670	2
bin	672	0
bin	674	0
bin	676	0
bin	678	0
bin	680	0
bin	682	0
statistic Network.tor[7] cache_occupancy
field count 1200
field mean 300
field stddev 0
field min 300
field max 300
field sum 360000
field sqrsum 108000000
bin	-inf	0
bin	299	0
bin	300	1200
bin	301	0
statistic Network.tor[7] activity_time_of_a_rule_A
field count 156075
field mean 0.00010245710959388
field stddev 0.00053471751075587
field min 0
field max 0.017557097554
field sum 15.990993379865
field sqrsum 0.046263508593839
bin	-inf	0
bin	-0.5	0
bin	-0.48	0
bin	-0.46	0
bin	-0.44	0
bin	-0.42	0
bin	-0.4	0
bin	-0.38	0
bin	-0.36	0
bin	-0.34	0
bin	-0.32	0
bin	-0.3	0
bin	-0.28	0
bin	-0.26	0
bin	-0.24	0
bin	-0.22	0
bin	-0.2	0
bin	-0.18	0
bin	-0.16	0
bin	-0.14	0
bin	-0.12	0
bin	-0.1	0
bin	-0.08	0
bin	-0.06	0
bin	-0.04	0
bin	-0.02	0
bin	0	156075
bin	0.02	0
bin	0.04	0
bin	0.06	0
bin	0.08	0
bin	0.1	0
bin	0.12	0
bin	0.14	0
bin	0.16	0
bin	0.18	0
bin	0.2	0
bin	0.22	0
bin	0.24	0
bin	0.26	0
bin	0.28	0
bin	0.3	0
bin	0.32	0
bin	0.34	0
bin	0.36	0
bin	0.38	0
bin	0.4	0
bin	0.42	0
bin	0.44	0
bin	0.46	0
bin	0.48	0
bin	0.5	0
statistic Network.tor[7] activity_time_of_a_rule_B
field count 897921
field mean 9.1233578361504e-006
field stddev 6.3063763081497e-005
field min 0
field max 0.004401203188
field sum 8.192054591594
field sqrsum 0.0036458011985666
bin	-inf	0
bin	-0.5	0
bin	-0.48	0
bin	-0.46	0
bin	-0.44	0
bin	-0.42	0
bin	-0.4	0
bin	-0.38	0
bin	-0.36	0
bin	-0.34	0
bin	-0.32	0
bin	-0.3	0
bin	-0.28	0
bin	-0.26	0
bin	-0.24	0
bin	-0.22	0
bin	-0.2	0
bin	-0.18	0
bin	-0.16	0
bin	-0.14	0
bin	-0.12	0
bin	-0.1	0
bin	-0.08	0
bin	-0.06	0
bin	-0.04	0
bin	-0.02	0
bin	0	897921
bin	0.02	0
bin	0.04	0
bin	0.06	0
bin	0.08	0
bin	0.1	0
bin	0.12	0
bin	0.14	0
bin	0.16	0
bin	0.18	0
bin	0.2	0
bin	0.22	0
bin	0.24	0
bin	0.26	0
bin	0.28	0
bin	0.3	0
bin	0.32	0
bin	0.34	0
bin	0.36	0
bin	0.38	0
bin	0.4	0
bin	0.42	0
bin	0.44	0
bin	0.46	0
bin	0.48	0
bin	0.5	0
statistic Network.tor[7] bandwidth_histogram
field count 1200
field mean 317.5827
field stddev 22.90460409577
field min 262.44
field max 417.6
field sum 381099.24
field sqrsum 121659546.0528
bin	-inf	0
bin	262	1
bin	264	0
bin	266	0
bin	268	0
bin	270	1
bin	272	2
bin	274	2
bin	276	1
bin	278	6
bin	280	7
bin	282	7
bin	284	13
bin	286	21
bin	288	23
bin	290	27
bin	292	33
bin	294	35
bin	296	42
bin	298	33
bin	300	48
bin	302	51
bin	304	62
bin	306	31
bin	308	48
bin	310	50
bin	312	55
bin	314	48
bin	316	49
bin	318	39
bin	320	40
bin	322	32
bin	324	47
bin	326	37
bin	328	24
bin	330	32
bin	332	25
bin	334	23
bin	336	23
bin	338	22
bin	340	15
bin	342	16
bin	344	10
bin	346	15
bin	348	10
bin	350	8
bin	352	7
bin	354	9
bin	356	3
bin	358	7
bin	360	7
bin	362	5
bin	364	4
bin	366	2
bin	368	1
bin	370	0
bin	372	3
bin	374	1
bin	376	1
bin	378	4
bin	380	3
bin	382	5
bin	384	4
bin	386	1
bin	388	2
bin	390	0
bin	392	0
bin	394	1
bin	396	5
bin	398	1
bin	400	2
bin	402	2
bin	404	2
bin	406	0
bin	408	0
bin	410	1
bin	412	2
bin	414	0
bin	416	1
bin	418	0
scalar Network.tor[7] "cache_content_by_app: " 0.60593220338983
scalar Network.tor[8] "Bandwidth: " 0
statistic Network.tor[8] "flow count"
field count 1200
field mean 641.69
field stddev 20.788515306307
field min 590
field max 702
field sum 770028
field sqrsum 494637430
bin	-inf	0
bin	590	1
bin	592	0
bin	594	1
bin	596	0
bin	598	3
bin	600	6
bin	602	7
bin	604	8
bin	606	9
bin	608	15
bin	610	15
bin	612	19
bin	614	23
bin	616	43
bin	618	33
bin	620	41
bin	622	36
bin	624	31
bin	626	42
bin	628	40
bin	630	38
bin	632	55
bin	634	54
bin	636	53
bin	638	39
bin	640	33
bin	642	31
bin	644	38
bin	646	24
bin	648	43
bin	650	33
bin	652	33
bin	654	33
bin	656	32
bin	658	21
bin	660	36
bin	662	31
bin	664	24
bin	666	14
bin	668	19
bin	670	26
bin	672	16
bin	674	19
bin	676	21
bin	678	12
bin	680	14
bin	682	5
bin	684	12
bin	686	7
bin	688	3
bin	690	0
bin	692	3
bin	694	1
bin	696	0
bin	698	1
bin	700	1
bin	702	2
bin	704	0
statistic Network.tor[8] cache_occupancy
field count 1200
field mean 300
field stddev 0
field min 300
field max 300
field sum 360000
field sqrsum 108000000
bin	-inf	0
bin	299	0
bin	300	1200
bin	301	0
statistic Network.tor[8] activity_time_of_a_rule_A
field count 158896
field mean 0.00010335896049641
field stddev 0.00052033119501041
field min 0
field max 0.026961886891
field sum 16.423325387037
field sqrsum 0.044717453509539
bin	-inf	0
bin	-0.5	0
bin	-0.48	0
bin	-0.46	0
bin	-0.44	0
bin	-0.42	0
bin	-0.4	0
bin	-0.38	0
bin	-0.36	0
bin	-0.34	0
bin	-0.32	0
bin	-0.3	0
bin	-0.28	0
bin	-0.26	0
bin	-0.24	0
bin	-0.22	0
bin	-0.2	0
bin	-0.18	0
bin	-0.16	0
bin	-0.14	0
bin	-0.12	0
bin	-0.1	0
bin	-0.08	0
bin	-0.06	0
bin	-0.04	0
bin	-0.02	0
bin	0	158891
bin	0.02	5
bin	0.04	0
bin	0.06	0
bin	0.08	0
bin	0.1	0
bin	0.12	0
bin	0.14	0
bin	0.16	0
bin	0.18	0
bin	0.2	0
bin	0.22	0
bin	0.24	0
bin	0.26	0
bin	0.28	0
bin	0.3	0
bin	0.32	0
bin	0.34	0
bin	0.36	0
bin	0.38	0
bin	0.4	0
bin	0.42	0
bin	0.44	0
bin	0.46	0
bin	0.48	0
bin	0.5	0
statistic Network.tor[8] activity_time_of_a_rule_B
field count 899956
field mean 8.5773319349291e-006
field stddev 5.8911375471345e-005
field min 0
field max 0.00490622574
field sum 7.719221338831
field sqrsum 0.0031895492928784
bin	-inf	0
bin	-0.5	0
bin	-0.48	0
bin	-0.46	0
bin	-0.44	0
bin	-0.42	0
bin	-0.4	0
bin	-0.38	0
bin	-0.36	0
bin	-0.34	0
bin	-0.32	0
bin	-0.3	0
bin	-0.28	0
bin	-0.26	0
bin	-0.24	0
bin	-0.22	0
bin	-0.2	0
bin	-0.18	0
bin	-0.16	0
bin	-0.14	0
bin	-0.12	0
bin	-0.1	0
bin	-0.08	0
bin	-0.06	0
bin	-0.04	0
bin	-0.02	0
bin	0	899956
bin	0.02	0
bin	0.04	0
bin	0.06	0
bin	0.08	0
bin	0.1	0
bin	0.12	0
bin	0.14	0
bin	0.16	0
bin	0.18	0
bin	0.2	0
bin	0.22	0
bin	0.24	0
bin	0.26	0
bin	0.28	0
bin	0.3	0
bin	0.32	0
bin	0.34	0
bin	0.36	0
bin	0.38	0
bin	0.4	0
bin	0.42	0
bin	0.44	0
bin	0.46	0
bin	0.48	0
bin	0.5	0
statistic Network.tor[8] bandwidth_histogram
field count 1200
field mean 331.467
field stddev 25.209265364476
field min 281.64
field max 411.12
field sum 397760.4
field sqrsum 132606419.472
bin	-inf	0
bin	278	0
bin	280	1
bin	282	0
bin	284	1
bin	286	1
bin	288	1
bin	290	2
bin	292	6
bin	294	6
bin	296	12
bin	298	8
bin	300	28
bin	302	22
bin	304	26
bin	306	32
bin	308	50
bin	310	43
bin	312	42
bin	314	66
bin	316	60
bin	318	60
bin	320	59
bin	322	63
bin	324	53
bin	326	47
bin	328	33
bin	330	41
bin	332	32
bin	334	40
bin	336	18
bin	338	26
bin	340	17
bin	342	21
bin	344	22
bin	346	23
bin	348	13
bin	350	22
bin	352	7
bin	354	10
bin	356	11
bin	358	5
bin	360	10
bin	362	11
bin	364	3
bin	366	7
bin	368	7
bin	370	5
bin	372	9
bin	374	6
bin	376	9
bin	378	10
bin	380	8
bin	382	6
bin	384	10
bin	386	8
bin	388	10
bin	390	11
bin	392	6
bin	394	7
bin	396	4
bin	398	2
bin	400	5
bin	402	3
bin	404	4
bin	406	5
bin	408	3
bin	410	1
bin	412	0
scalar Network.tor[8] "cache_content_by_app: " 0.62820512820513
scalar Network.tor[9] "Bandwidth: " 0
statistic Network.tor[9] "flow count"
field count 1200
field mean 627.75166666667
field stddev 20.417698186171
field min 570
field max 679
field sum 753302
field sqrsum 473386428
bin	-inf	0
bin	564	0
bin	566	0
bin	568	0
bin	570	1
bin	572	1
bin	574	2
bin	576	5
bin	578	2
bin	580	6
bin	582	8
bin	584	12
bin	586	10
bin	588	4
bin	590	19
bin	592	15
bin	594	12
bin	596	14
bin	598	15
bin	600	20
bin	602	25
bin	604	17
bin	606	24
bin	608	34
bin	610	29
bin	612	22
bin	614	25
bin	616	31
bin	618	27
bin	620	30
bin	622	45
bin	624	42
bin	626	38
bin	628	58
bin	630	44
bin	632	44
bin	634	42
bin	636	48
bin	638	59
bin	640	35
bin	642	58
bin	644	33
bin	646	40
bin	648	35
bin	650	31
bin	652	33
bin	654	23
bin	656	25
bin	658	11
bin	660	14
bin	662	8
bin	664	5
bin	666	9
bin	668	5
bin	670	1
bin	672	1
bin	674	0
bin	676	2
bin	678	1
bin	680	0
statistic Network.tor[9] cache_occupancy
field count 1200
field mean 300
field stddev 0
field min 300
field max 300
field sum 360000
field sqrsum 108000000
bin	-inf	0
bin	299	0
bin	300	1200
bin	301	0
statistic Network.tor[9] activity_time_of_a_rule_A
field count 157295
field mean 0.00010218150610181
field stddev 0.00051319672875348
field min 0
field max 0.021181352935
field sum 16.072640002284
field sqrsum 0.043068986139206
bin	-inf	0
bin	-0.5	0
bin	-0.48	0
bin	-0.46	0
bin	-0.44	0
bin	-0.42	0
bin	-0.4	0
bin	-0.38	0
bin	-0.36	0
bin	-0.34	0
bin	-0.32	0
bin	-0.3	0
bin	-0.28	0
bin	-0.26	0
bin	-0.24	0
bin	-0.22	0
bin	-0.2	0
bin	-0.18	0
bin	-0.16	0
bin	-0.14	0
bin	-0.12	0
bin	-0.1	0
bin	-0.08	0
bin	-0.06	0
bin	-0.04	0
bin	-0.02	0
bin	0	157294
bin	0.02	1
bin	0.04	0
bin	0.06	0
bin	0.08	0
bin	0.1	0
bin	0.12	0
bin	0.14	0
bin	0.16	0
bin	0.18	0
bin	0.2	0
bin	0.22	0
bin	0.24	0
bin	0.26	0
bin	0.28	0
bin	0.3	0
bin	0.32	0
bin	0.34	0
bin	0.36	0
bin	0.38	0
bin	0.4	0
bin	0.42	0
bin	0.44	0
bin	0.46	0
bin	0.48	0
bin	0.5	0
statistic Network.tor[9] activity_time_of_a_rule_B
field count 899148
field mean 8.9602482463855e-006
field stddev 6.3181551732103e-005
field min 0
field max 0.005938665551
field sum 8.0565892902411
field sqrsum 0.0036615015734756
bin	-inf	0
bin	-0.5	0
bin	-0.48	0
bin	-0.46	0
bin	-0.44	0
bin	-0.42	0
bin	-0.4	0
bin	-0.38	0
bin	-0.36	0
bin	-0.34	0
bin	-0.32	0
bin	-0.3	0
bin	-0.28	0
bin	-0.26	0
bin	-0.24	0
bin	-0.22	0
bin	-0.2	0
bin	-0.18	0
bin	-0.16	0
bin	-0.14	0
bin	-0.12	0
bin	-0.1	0
bin	-0.08	0
bin	-0.06	0
bin	-0.04	0
bin	-0.02	0
bin	0	899148
bin	0.02	0
bin	0.04	0
bin	0.06	0
bin	0.08	0
bin	0.1	0
bin	0.12	0
bin	0.14	0
bin	0.16	0
bin	0.18	0
bin	0.2	0
bin	0.22	0
bin	0.24	0
bin	0.26	0
bin	0.28	0
bin	0.3	0
bin	0.32	0
bin	0.34	0
bin	0.36	0
bin	0.38	0
bin	0.4	0
bin	0.42	0
bin	0.44	0
bin	0.46	0
bin	0.48	0
bin	0.5	0
statistic Network.tor[9] bandwidth_histogram
field count 1200
field mean 301.4475
field stddev 19.773818860899
field min 258.84
field max 366.96
field sum 361737
field sqrsum 109513527.9984
bin	-inf	0
bin	236	0
bin	238	0
bin	240	0
bin	242	0
bin	244	0
bin	246	0
bin	248	0
bin	250	0
bin	252	0
bin	254	0
bin	256	0
bin	258	3
bin	260	3
bin	262	6
bin	264	7
bin	266	6
bin	268	13
bin	270	18
bin	272	18
bin	274	20
bin	276	19
bin	278	29
bin	280	37
bin	282	40
bin	284	43
bin	286	49
bin	288	41
bin	290	62
bin	292	66
bin	294	57
bin	296	50
bin	298	48
bin	300	58
bin	302	43
bin	304	33
bin	306	38
bin	308	43
bin	310	30
bin	312	28
bin	314	29
bin	316	21
bin	318	19
bin	320	24
bin	322	23
bin	324	21
bin	326	21
bin	328	17
bin	330	22
bin	332	13
bin	334	13
bin	336	14
bin	338	6
bin	340	6
bin	342	8
bin	344	4
bin	346	6
bin	348	6
bin	350	2
bin	352	4
bin	354	3
bin	356	1
bin	358	2
bin	360	2
bin	362	1
bin	364	1
bin	366	3
bin	368	0
bin	370	0
bin	372	0
bin	374	0
bin	376	0
bin	378	0
bin	380	0
bin	382	0
bin	384	0
bin	386	0
bin	388	0
bin	390	0
bin	392	0
bin	394	0
scalar Network.tor[9] "cache_content_by_app: " 0.60504201680672
scalar Network.agg[0] "Bandwidth: " 0
statistic Network.agg[0] "flow count"
field count 1200
field mean 3528.0266666667
field stddev 22.477143365379
field min 3475
field max 3586
field sum 4233632
field sqrsum 14936972354
bin	-inf	0
bin	3474	1
bin	3476	2
bin	3478	1
bin	3480	2
bin	3482	10
bin	3484	9
bin	3486	15
bin	3488	7
bin	3490	12
bin	3492	6
bin	3494	14
bin	3496	22
bin	3498	18
bin	3500	24
bin	3502	27
bin	3504	27
bin	3506	43
bin	3508	29
bin	3510	43
bin	3512	30
bin	3514	40
bin	3516	32
bin	3518	38
bin	3520	31
bin	3522	44
bin	3524	41
bin	3526	44
bin	3528	40
bin	3530	38
bin	3532	36
bin	3534	39
bin	3536	30
bin	3538	31
bin	3540	28
bin	3542	36
bin	3544	30
bin	3546	30
bin	3548	29
bin	3550	17
bin	3552	26
bin	3554	27
bin	3556	21
bin	3558	17
bin	3560	17
bin	3562	16
bin	3564	14
bin	3566	8
bin	3568	11
bin	3570	11
bin	3572	10
bin	3574	5
bin	3576	8
bin	3578	4
bin	3580	3
bin	3582	3
bin	3584	2
bin	3586	1
bin	3588	0
bin	3590	0
bin	3592	0
bin	3594	0
bin	3596	0
statistic Network.agg[0] cache_occupancy
field count 1200
field mean 1500
field stddev 0
field min 1500
field max 1500
field sum 1800000
field sqrsum 2700000000
bin	-inf	0
bin	1499	0
bin	1500	1200
bin	1501	0
statistic Network.agg[0] activity_time_of_a_rule_A
field count 140050
field mean 8.71399355999e-005
field stddev 0.0001060494392789
field min 0
field max 0.001607306383
field sum 12.203947980766
field sqrsum 0.0026385100187952
bin	-inf	0
bin	0	53121
bin	3.2e-005	24855
bin	6.4e-005	17352
bin	9.6e-005	11668
bin	0.000128	8884
bin	0.00016	6313
bin	0.000192	4272
bin	0.000224	3412
bin	0.000256	2634
bin	0.000288	1745
bin	0.00032	1402
bin	0.000352	1183
bin	0.000384	709
bin	0.000416	588
bin	0.000448	464
bin	0.00048	322
bin	0.000512	269
bin	0.000544	210
bin	0.000576	143
bin	0.000608	101
bin	0.00064	86
bin	0.000672	68
bin	0.000704	53
bin	0.000736	36
bin	0.000768	39
bin	0.0008	16
bin	0.000832	12
bin	0.000864	20
bin	0.000896	11
bin	0.000928	12
bin	0.00096	13
bin	0.000992	8
bin	0.001024	5
bin	0.001056	5
bin	0.001088	1
bin	0.00112	3
bin	0.001152	5
bin	0.001184	1
bin	0.001216	4
bin	0.001248	1
bin	0.00128	0
bin	0.001312	0
bin	0.001344	2
bin	0.001376	0
bin	0.001408	0
bin	0.00144	1
bin	0.001472	0
bin	0.001504	0
bin	0.001536	0
bin	0.001568	0
bin	0.0016	1
bin	0.001632	0
statistic Network.agg[0] activity_time_of_a_rule_B
field count 851726
field mean 0.00011888387862586
field stddev 0.00015690700322171
field min 0
field max 0.003318653419
field sum 101.25649040649
field sqrsum 0.033007069994794
bin	-inf	0
bin	0	418072
bin	6.4e-005	165929
bin	0.000128	96465
bin	0.000192	58345
bin	0.000256	36861
bin	0.00032	23493
bin	0.000384	15827
bin	0.000448	10700
bin	0.000512	7368
bin	0.000576	5079
bin	0.00064	3626
bin	0.000704	2591
bin	0.000768	1946
bin	0.000832	1370
bin	0.000896	1001
bin	0.00096	709
bin	0.001024	595
bin	0.001088	428
bin	0.001152	269
bin	0.001216	212
bin	0.00128	181
bin	0.001344	166
bin	0.001408	106
bin	0.001472	88
bin	0.001536	81
bin	0.0016	46
bin	0.001664	39
bin	0.001728	30
bin	0.001792	30
bin	0.001856	13
bin	0.00192	15
bin	0.001984	7
bin	0.002048	11
bin	0.002112	5
bin	0.002176	5
bin	0.00224	0
bin	0.002304	3
bin	0.002368	2
bin	0.002432	2
bin	0.002496	1
bin	0.00256	3
bin	0.002624	0
bin	0.002688	0
bin	0.002752	2
bin	0.002816	1
bin	0.00288	2
bin	0.002944	0
bin	0.003008	0
bin	0.003072	0
bin	0.003136	0
bin	0.0032	0
bin	0.003264	1
bin	0.003328	0
statistic Network.agg[0] bandwidth_histogram
field count 0
field mean nan
field stddev nan
field min nan
field max nan
field sum 0
field sqrsum 0
bin	-inf	0
bin	0	0
bin	1	0
scalar Network.agg[0] "cache_content_by_app: " 0.13179571663921
statistic Network.dest "miss count"
field count 32368912
field mean 0.53647336061218
field stddev 0.68281806209996
field min 0
field max 2
field sum 17365059
field sqrsum 24407589
bin	-inf	0
bin	0	18525118
bin	1	10322529
bin	2	3521265
bin	3	0
statistic Network.dest "out of order"
field count 32368912
field mean 1.1000751894287
field stddev 10.517792067092
field min -17
field max 5176
field sum 35608237
field sqrsum 3619948529
bin	-inf	0
bin	-100	11063
bin	0	32351331
bin	100	1376
bin	200	1442
bin	300	1395
bin	400	1153
bin	500	70
bin	600	85
bin	700	75
bin	800	68
bin	900	79
bin	1000	62
bin	1100	50
bin	1200	59
bin	1300	50
bin	1400	65
bin	1500	51
bin	1600	47
bin	1700	48
bin	1800	48
bin	1900	32
bin	2000	39
bin	2100	45
bin	2200	29
bin	2300	24
bin	2400	24
bin	2500	25
bin	2600	26
bin	2700	11
bin	2800	14
bin	2900	8
bin	3000	2
bin	3100	1
bin	3200	2
bin	3300	2
bin	3400	1
bin	3500	0
bin	3600	0
bin	3700	0
bin	3800	0
bin	3900	0
bin	4000	0
bin	4100	0
bin	4200	1
bin	4300	1
bin	4400	2
bin	4500	1
bin	4600	2
bin	4700	1
bin	4800	0
bin	4900	0
bin	5000	0
bin	5100	2
bin	5200	0
statistic Network.dest "bandwidth to destination"
field count 1200
field mean 3236891200000
field stddev 65119211499.531
field min 2972040000000
field max 3460560000000
field sum 3.88426944e+015
field sqrsum 1.2578041942301e+028
bin	-inf	0
bin	2890000000000	0
bin	2900000000000	0
bin	2910000000000	0
bin	2920000000000	0
bin	2930000000000	0
bin	2940000000000	0
bin	2950000000000	0
bin	2960000000000	0
bin	2970000000000	1
bin	2980000000000	0
bin	2990000000000	0
bin	3000000000000	0
bin	3010000000000	0
bin	3020000000000	0
bin	3030000000000	0
bin	3040000000000	0
bin	3050000000000	0
bin	3060000000000	0
bin	3070000000000	0
bin	3080000000000	1
bin	3090000000000	2
bin	3100000000000	3
bin	3110000000000	9
bin	3120000000000	19
bin	3130000000000	23
bin	3140000000000	38
bin	3150000000000	46
bin	3160000000000	56
bin	3170000000000	50
bin	3180000000000	53
bin	3190000000000	56
bin	3200000000000	73
bin	3210000000000	67
bin	3220000000000	75
bin	3230000000000	78
bin	3240000000000	93
bin	3250000000000	59
bin	3260000000000	61
bin	3270000000000	52
bin	3280000000000	47
bin	3290000000000	38
bin	3300000000000	36
bin	3310000000000	22
bin	3320000000000	23
bin	3330000000000	35
bin	3340000000000	19
bin	3350000000000	16
bin	3360000000000	9
bin	3370000000000	13
bin	3380000000000	5
bin	3390000000000	7
bin	3400000000000	6
bin	3410000000000	5
bin	3420000000000	1
bin	3430000000000	1
bin	3440000000000	0
bin	3450000000000	1
bin	3460000000000	1
bin	3470000000000	0
statistic Network.dest miss_count_by_apps
field count 32368912
field mean 0.78364496773942
field stddev 0.85281219783805
field min 0
field max 2.5
field sum 25365735
field sqrsum 43419272
bin	-inf	0
bin	-0.02	14684437
bin	0.01	0
bin	0.04	0
bin	0.07	0
bin	0.1	0
bin	0.13	0
bin	0.16	0
bin	0.19	0
bin	0.22	0
bin	0.25	0
bin	0.28	0
bin	0.31	0
bin	0.34	0
bin	0.37	0
bin	0.4	0
bin	0.43	0
bin	0.46	0
bin	0.49	3840681
bin	0.52	0
bin	0.55	0
bin	0.58	0
bin	0.61	0
bin	0.64	0
bin	0.67	0
bin	0.7	0
bin	0.73	0
bin	0.76	0
bin	0.79	0
bin	0.82	0
bin	0.85	0
bin	0.88	0
bin	0.91	0
bin	0.94	0
bin	0.97	0
bin	1	1012532
bin	1.03	0
bin	1.06	0
bin	1.09	0
bin	1.12	0
bin	1.15	0
bin	1.18	0
bin	1.21	0
bin	1.24	0
bin	1.27	0
bin	1.3	0
bin	1.33	0
bin	1.36	0
bin	1.39	0
bin	1.42	0
bin	1.45	0
bin	1.48	9309997
bin	1.51	0
bin	1.54	0
bin	1.57	0
bin	1.6	0
bin	1.63	0
bin	1.66	0
bin	1.69	0
bin	1.72	0
bin	1.75	0
bin	1.78	0
bin	1.81	0
bin	1.84	0
bin	1.87	0
bin	1.9	0
bin	1.93	0
bin	1.96	0
bin	1.99	670591
bin	2.02	0
bin	2.05	0
bin	2.08	0
bin	2.11	0
bin	2.14	0
bin	2.17	0
bin	2.2	0
bin	2.23	0
bin	2.26	0
bin	2.29	0
bin	2.32	0
bin	2.35	0
bin	2.38	0
bin	2.41	0
bin	2.44	0
bin	2.47	0
bin	2.5	2850674
bin	2.53	0
bin	2.56	0
bin	2.59	0
bin	2.62	0
bin	2.65	0
scalar Network.dest "Simulation duration (in minutes). By chrono library: " 4.2666666666667

