version 2
run General-0-20221112-18:12:59-23184
attr configname General
attr datetime 20221112-18:12:59
attr experiment General
attr inifile omnetpp.ini
attr iterationvars ""
attr iterationvarsf ""
attr measurement ""
attr network Network
attr processid 23184
attr repetition 0
attr replication #0
attr resultdir results
attr runnumber 0
attr seedset 0
param Network.NumOfToRs 5
param Network.NumOfAggregation 3
param Network.rack[*].number_of_hosts 10000
param Network.linedelay 0.2
param Network.tor[*].CacheSize 1000
param Network.agg[*].CacheSize 1000
param Network.controllerswitch.CacheSize 1000
param Network.tor[*].threshold 2
param Network.agg[*].threshold 2
param Network.controllerswitch.threshold 1
param Network.tor[*].Type 1001
param Network.agg[*].Type 1002
param Network.controllerswitch.Type 1003
param Network.rack[*].host[*].flow_appearance "\"\""
param Network.rack[*].host[*].flow_size "\"\""
param Network.policy_size "\"\""
param Network.cache_size "\"\""
param Network.propagation_time "\"\""
param Network.processing_time_on_data_packet_in_sw "\"\""
param Network.processing_time_on_data_packet_in_controller "\"\""
param Network.insertion_delay "\"\""
param Network.eviction_delay "\"\""
param Network.elephant_table_size "\"\""
param Network.flush_elephant_time "\"\""
param Network.check_for_elephant_time "\"\""
param Network.elephant_sample_rx "\"\""
param Network.bandwidth_elephant_threshold "\"\""
param Network.already_requested_threshold "\"\""
param Network.push_threshold_in_aggregation "\"\""
param Network.push_threshold_in_controller_switch "\"\""
param Network.cache_percentage "\"\""
param Network.eviction_sample_size "\"\""
param Network.inter_arrival_time_between_packets "\"\""
param Network.inter_arrival_time_between_flowlets "\"\""
param Network.inter_arrival_time_between_flows "\"\""
param Network.large_flow "\"\""
param Network.last_flow_id "\"0\""
param Network.last_flow_appearance "\"0\""
param Network.rack[*].last_flow_appearance "\"0\""

scalar Network.controller "Type: " 1e-005
statistic Network.rack[0].hub "flow count"
field count 100000
field mean 142.9596
field stddev 33.429835826388
field min 0
field max 190
field sum 14295960
field sqrsum 2155498998
bin	-inf	0
bin	0	54
bin	4	225
bin	8	247
bin	12	211
bin	16	238
bin	20	315
bin	24	225
bin	28	194
bin	32	347
bin	36	323
bin	40	209
bin	44	242
bin	48	209
bin	52	184
bin	56	298
bin	60	417
bin	64	555
bin	68	1111
bin	72	1019
bin	76	752
bin	80	620
bin	84	665
bin	88	1055
bin	92	1197
bin	96	1310
bin	100	1065
bin	104	1235
bin	108	1524
bin	112	1104
bin	116	619
bin	120	441
bin	124	844
bin	128	1485
bin	132	1963
bin	136	2451
bin	140	3945
bin	144	6000
bin	148	8504
bin	152	10688
bin	156	11461
bin	160	11287
bin	164	8851
bin	168	5863
bin	172	4158
bin	176	3022
bin	180	1138
bin	184	126
bin	188	4
bin	192	0
scalar Network.rack[0].hub "scalar: Total number of flows in the simulation:" 51715
statistic Network.rack[1].hub "flow count"
field count 100000
field mean 150.62502
field stddev 42.058496159166
field min 0
field max 200
field sum 15062502
field sqrsum 2445679606
bin	-inf	0
bin	0	55
bin	4	185
bin	8	445
bin	12	320
bin	16	555
bin	20	240
bin	24	432
bin	28	530
bin	32	631
bin	36	368
bin	40	441
bin	44	549
bin	48	795
bin	52	438
bin	56	308
bin	60	869
bin	64	1049
bin	68	1127
bin	72	756
bin	76	593
bin	80	569
bin	84	442
bin	88	325
bin	92	580
bin	96	560
bin	100	558
bin	104	534
bin	108	707
bin	112	1372
bin	116	596
bin	120	445
bin	124	1517
bin	128	1803
bin	132	1965
bin	136	2136
bin	140	1229
bin	144	1350
bin	148	840
bin	152	776
bin	156	2755
bin	160	8799
bin	164	13318
bin	168	11567
bin	172	10904
bin	176	7038
bin	180	4851
bin	184	5417
bin	188	3939
bin	192	1924
bin	196	491
bin	200	7
bin	204	0
scalar Network.rack[1].hub "scalar: Total number of flows in the simulation:" 52047
statistic Network.rack[2].hub "flow count"
field count 100000
field mean 151.45392
field stddev 36.799604328612
field min 0
field max 197
field sum 15145392
field sqrsum 2429248722
bin	-inf	0
bin	0	67
bin	4	245
bin	8	378
bin	12	263
bin	16	342
bin	20	348
bin	24	346
bin	28	326
bin	32	155
bin	36	347
bin	40	304
bin	44	215
bin	48	334
bin	52	303
bin	56	581
bin	60	747
bin	64	613
bin	68	611
bin	72	626
bin	76	881
bin	80	660
bin	84	441
bin	88	248
bin	92	462
bin	96	851
bin	100	658
bin	104	542
bin	108	151
bin	112	205
bin	116	164
bin	120	126
bin	124	564
bin	128	1585
bin	132	2199
bin	136	2608
bin	140	4247
bin	144	4906
bin	148	4875
bin	152	4176
bin	156	3161
bin	160	5832
bin	164	10357
bin	168	13003
bin	172	10481
bin	176	7267
bin	180	7335
bin	184	3848
bin	188	923
bin	192	87
bin	196	6
bin	200	0
scalar Network.rack[2].hub "scalar: Total number of flows in the simulation:" 52363
statistic Network.rack[3].hub "flow count"
field count 100000
field mean 153.21461
field stddev 37.086804753966
field min 0
field max 195
field sum 15321461
field sqrsum 2485013405
bin	-inf	0
bin	0	58
bin	4	71
bin	8	88
bin	12	262
bin	16	280
bin	20	290
bin	24	416
bin	28	462
bin	32	491
bin	36	351
bin	40	217
bin	44	297
bin	48	407
bin	52	437
bin	56	1071
bin	60	491
bin	64	450
bin	68	558
bin	72	570
bin	76	637
bin	80	376
bin	84	218
bin	88	78
bin	92	185
bin	96	498
bin	100	865
bin	104	1434
bin	108	680
bin	112	666
bin	116	1454
bin	120	1497
bin	124	1718
bin	128	1197
bin	132	766
bin	136	617
bin	140	831
bin	144	1672
bin	148	2580
bin	152	5255
bin	156	6989
bin	160	4749
bin	164	7212
bin	168	12058
bin	172	13271
bin	176	12332
bin	180	8384
bin	184	3534
bin	188	942
bin	192	38
bin	196	0
scalar Network.rack[3].hub "scalar: Total number of flows in the simulation:" 51979
statistic Network.rack[4].hub "flow count"
field count 100000
field mean 148.17525
field stddev 35.428437859714
field min 0
field max 208
field sum 14817525
field sqrsum 2321106637
bin	-inf	0
bin	0	91
bin	4	51
bin	8	298
bin	12	349
bin	16	579
bin	20	325
bin	24	256
bin	28	291
bin	32	521
bin	36	475
bin	40	343
bin	44	643
bin	48	556
bin	52	240
bin	56	626
bin	60	430
bin	64	565
bin	68	557
bin	72	279
bin	76	82
bin	80	205
bin	84	171
bin	88	360
bin	92	666
bin	96	1396
bin	100	951
bin	104	463
bin	108	229
bin	112	329
bin	116	985
bin	120	1223
bin	124	549
bin	128	287
bin	132	217
bin	136	561
bin	140	1755
bin	144	4801
bin	148	8212
bin	152	9140
bin	156	12632
bin	160	13697
bin	164	13124
bin	168	10325
bin	172	3839
bin	176	1647
bin	180	1036
bin	184	510
bin	188	1339
bin	192	1064
bin	196	555
bin	200	144
bin	204	30
bin	208	1
bin	212	0
scalar Network.rack[4].hub "scalar: Total number of flows in the simulation:" 51476
statistic Network.tor[0] "flow count"
field count 100000
field mean 140.30499
field stddev 33.134561262998
field min 0
field max 185
field sum 14030499
field sqrsum 2078337839
bin	-inf	0
bin	0	136
bin	4	230
bin	8	263
bin	12	181
bin	16	274
bin	20	355
bin	24	127
bin	28	272
bin	32	395
bin	36	237
bin	40	240
bin	44	225
bin	48	192
bin	52	202
bin	56	361
bin	60	462
bin	64	830
bin	68	1162
bin	72	893
bin	76	686
bin	80	610
bin	84	868
bin	88	1154
bin	92	1352
bin	96	1122
bin	100	1127
bin	104	1491
bin	108	1368
bin	112	803
bin	116	386
bin	120	681
bin	124	1149
bin	128	1924
bin	132	2182
bin	136	3339
bin	140	5367
bin	144	7601
bin	148	10334
bin	152	11490
bin	156	11488
bin	160	10150
bin	164	6599
bin	168	4347
bin	172	3566
bin	176	1567
bin	180	206
bin	184	6
bin	188	0
statistic Network.tor[1] "flow count"
field count 100000
field mean 150.46978
field stddev 41.854702542401
field min 0
field max 202
field sum 15046978
field sqrsum 2439295330
bin	-inf	0
bin	0	47
bin	4	165
bin	8	446
bin	12	315
bin	16	537
bin	20	279
bin	24	400
bin	28	539
bin	32	619
bin	36	381
bin	40	437
bin	44	532
bin	48	760
bin	52	496
bin	56	298
bin	60	817
bin	64	1052
bin	68	1154
bin	72	769
bin	76	618
bin	80	546
bin	84	474
bin	88	343
bin	92	541
bin	96	570
bin	100	556
bin	104	545
bin	108	690
bin	112	1350
bin	116	637
bin	120	464
bin	124	1465
bin	128	1810
bin	132	2017
bin	136	2099
bin	140	1272
bin	144	1321
bin	148	855
bin	152	895
bin	156	3151
bin	160	9225
bin	164	13043
bin	168	11664
bin	172	10701
bin	176	6848
bin	180	4914
bin	184	5349
bin	188	3790
bin	192	1734
bin	196	462
bin	200	8
bin	204	0
statistic Network.tor[2] "flow count"
field count 100000
field mean 151.34165
field stddev 36.642670373902
field min 0
field max 198
field sum 15134165
field sqrsum 2424696689
bin	-inf	0
bin	0	56
bin	4	232
bin	8	357
bin	12	285
bin	16	323
bin	20	367
bin	24	330
bin	28	340
bin	32	164
bin	36	314
bin	40	341
bin	44	192
bin	48	351
bin	52	302
bin	56	561
bin	60	739
bin	64	629
bin	68	603
bin	72	636
bin	76	840
bin	80	714
bin	84	440
bin	88	252
bin	92	460
bin	96	819
bin	100	681
bin	104	545
bin	108	171
bin	112	195
bin	116	171
bin	120	134
bin	124	552
bin	128	1602
bin	132	2177
bin	136	2617
bin	140	4256
bin	144	4949
bin	148	4903
bin	152	4111
bin	156	3409
bin	160	6200
bin	164	10641
bin	168	12674
bin	172	10280
bin	176	7464
bin	180	6968
bin	184	3637
bin	188	921
bin	192	89
bin	196	6
bin	200	0
statistic Network.tor[3] "flow count"
field count 100000
field mean 153.07681
field stddev 36.949720202488
field min 0
field max 195
field sum 15307681
field sqrsum 2479777793
bin	-inf	0
bin	0	51
bin	4	72
bin	8	87
bin	12	249
bin	16	288
bin	20	268
bin	24	426
bin	28	429
bin	32	517
bin	36	353
bin	40	234
bin	44	279
bin	48	412
bin	52	414
bin	56	1052
bin	60	534
bin	64	432
bin	68	573
bin	72	570
bin	76	637
bin	80	381
bin	84	237
bin	88	77
bin	92	185
bin	96	472
bin	100	869
bin	104	1394
bin	108	750
bin	112	652
bin	116	1433
bin	120	1523
bin	124	1733
bin	128	1191
bin	132	772
bin	136	634
bin	140	918
bin	144	1701
bin	148	2694
bin	152	5416
bin	156	6725
bin	160	4929
bin	164	7520
bin	168	12166
bin	172	13256
bin	176	12052
bin	180	8114
bin	184	3354
bin	188	928
bin	192	47
bin	196	0
statistic Network.tor[4] "flow count"
field count 100000
field mean 148.07393
field stddev 35.289156090795
field min 0
field max 207
field sum 14807393
field sqrsum 2317120083
bin	-inf	0
bin	0	80
bin	4	54
bin	8	283
bin	12	333
bin	16	579
bin	20	347
bin	24	249
bin	28	280
bin	32	514
bin	36	482
bin	40	352
bin	44	620
bin	48	584
bin	52	240
bin	56	606
bin	60	447
bin	64	551
bin	68	572
bin	72	287
bin	76	89
bin	80	198
bin	84	171
bin	88	354
bin	92	623
bin	96	1386
bin	100	985
bin	104	488
bin	108	238
bin	112	332
bin	116	959
bin	120	1204
bin	124	589
bin	128	295
bin	132	214
bin	136	607
bin	140	1849
bin	144	4957
bin	148	8068
bin	152	9413
bin	156	12777
bin	160	13785
bin	164	13134
bin	168	9823
bin	172	3779
bin	176	1615
bin	180	978
bin	184	607
bin	188	1304
bin	192	1023
bin	196	522
bin	200	142
bin	204	32
bin	208	0
statistic Network.agg[0] "flow count"
field count 100000
field mean 238.83555
field stddev 55.893687185944
field min 0
field max 313
field sum 23883555
field sqrsum 6016649297
bin	-inf	0
bin	0	13
bin	4	78
bin	8	56
bin	12	66
bin	16	205
bin	20	327
bin	24	318
bin	28	252
bin	32	198
bin	36	122
bin	40	136
bin	44	183
bin	48	231
bin	52	180
bin	56	98
bin	60	72
bin	64	202
bin	68	286
bin	72	218
bin	76	179
bin	80	186
bin	84	165
bin	88	125
bin	92	475
bin	96	397
bin	100	237
bin	104	486
bin	108	393
bin	112	241
bin	116	323
bin	120	178
bin	124	219
bin	128	556
bin	132	475
bin	136	412
bin	140	313
bin	144	336
bin	148	380
bin	152	437
bin	156	377
bin	160	147
bin	164	287
bin	168	499
bin	172	602
bin	176	395
bin	180	153
bin	184	141
bin	188	203
bin	192	693
bin	196	1494
bin	200	2098
bin	204	1753
bin	208	715
bin	212	559
bin	216	763
bin	220	822
bin	224	550
bin	228	553
bin	232	1328
bin	236	2770
bin	240	3271
bin	244	4254
bin	248	5970
bin	252	7319
bin	256	7937
bin	260	8366
bin	264	7409
bin	268	6960
bin	272	5796
bin	276	3874
bin	280	2447
bin	284	2504
bin	288	3199
bin	292	2262
bin	296	1041
bin	300	512
bin	304	195
bin	308	23
bin	312	5
bin	316	0
statistic Network.agg[1] "flow count"
field count 100000
field mean 250.70546
field stddev 62.888412253072
field min 0
field max 316
field sum 25070546
field sqrsum 6680814052
bin	-inf	0
bin	0	33
bin	4	58
bin	8	72
bin	12	158
bin	16	154
bin	20	92
bin	24	189
bin	28	132
bin	32	143
bin	36	240
bin	40	199
bin	44	259
bin	48	306
bin	52	259
bin	56	224
bin	60	220
bin	64	97
bin	68	99
bin	72	150
bin	76	244
bin	80	142
bin	84	196
bin	88	334
bin	92	446
bin	96	728
bin	100	646
bin	104	258
bin	108	257
bin	112	490
bin	116	474
bin	120	364
bin	124	267
bin	128	302
bin	132	265
bin	136	157
bin	140	292
bin	144	455
bin	148	1190
bin	152	997
bin	156	388
bin	160	267
bin	164	256
bin	168	176
bin	172	412
bin	176	435
bin	180	407
bin	184	347
bin	188	268
bin	192	169
bin	196	255
bin	200	600
bin	204	993
bin	208	631
bin	212	328
bin	216	238
bin	220	521
bin	224	1419
bin	228	1712
bin	232	1653
bin	236	2090
bin	240	1935
bin	244	1351
bin	248	1162
bin	252	992
bin	256	1074
bin	260	2543
bin	264	4687
bin	268	6537
bin	272	7331
bin	276	6926
bin	280	6525
bin	284	5398
bin	288	5399
bin	292	7014
bin	296	7509
bin	300	4983
bin	304	2436
bin	308	905
bin	312	135
bin	316	5
bin	320	0
statistic Network.agg[2] "flow count"
field count 100000
field mean 254.4052
field stddev 62.513575425112
field min 0
field max 318
field sum 25440520
field sqrsum 6862991382
bin	-inf	0
bin	0	4
bin	4	92
bin	8	83
bin	12	204
bin	16	213
bin	20	218
bin	24	88
bin	28	105
bin	32	391
bin	36	239
bin	40	110
bin	44	146
bin	48	256
bin	52	361
bin	56	249
bin	60	212
bin	64	229
bin	68	315
bin	72	312
bin	76	213
bin	80	172
bin	84	201
bin	88	431
bin	92	580
bin	96	330
bin	100	275
bin	104	396
bin	108	410
bin	112	263
bin	116	254
bin	120	253
bin	124	179
bin	128	121
bin	132	267
bin	136	327
bin	140	174
bin	144	506
bin	148	559
bin	152	367
bin	156	450
bin	160	371
bin	164	332
bin	168	459
bin	172	260
bin	176	191
bin	180	110
bin	184	283
bin	188	498
bin	192	565
bin	196	581
bin	200	459
bin	204	309
bin	208	264
bin	212	464
bin	216	419
bin	220	292
bin	224	215
bin	228	276
bin	232	325
bin	236	268
bin	240	360
bin	244	692
bin	248	1250
bin	252	1731
bin	256	2587
bin	260	4190
bin	264	5744
bin	268	8166
bin	272	9070
bin	276	7088
bin	280	5674
bin	284	6247
bin	288	8119
bin	292	9345
bin	296	7153
bin	300	3809
bin	304	1109
bin	308	148
bin	312	15
bin	316	7
bin	320	0
statistic Network.controllerswitch "flow count"
field count 100000
field mean 377.8442
field stddev 140.06275308628
field min 0
field max 574
field sum 37784420
field sqrsum 16238361810
bin	-inf	0
bin	0	816
bin	8	1082
bin	16	794
bin	24	1045
bin	32	1311
bin	40	1489
bin	48	1165
bin	56	656
bin	64	405
bin	72	413
bin	80	493
bin	88	479
bin	96	451
bin	104	474
bin	112	422
bin	120	312
bin	128	202
bin	136	158
bin	144	169
bin	152	174
bin	160	216
bin	168	267
bin	176	317
bin	184	330
bin	192	385
bin	200	362
bin	208	390
bin	216	338
bin	224	382
bin	232	390
bin	240	395
bin	248	394
bin	256	423
bin	264	390
bin	272	425
bin	280	422
bin	288	457
bin	296	538
bin	304	583
bin	312	725
bin	320	841
bin	328	1029
bin	336	1208
bin	344	1383
bin	352	1649
bin	360	1676
bin	368	1845
bin	376	1691
bin	384	1733
bin	392	1953
bin	400	2074
bin	408	2419
bin	416	3174
bin	424	3923
bin	432	4858
bin	440	5942
bin	448	6602
bin	456	6706
bin	464	6587
bin	472	5864
bin	480	4934
bin	488	3884
bin	496	2805
bin	504	1973
bin	512	1212
bin	520	702
bin	528	378
bin	536	183
bin	544	79
bin	552	39
bin	560	13
bin	568	2
bin	576	0
statistic Network.dest "miss count"
field count 0
field mean nan
field stddev nan
field min nan
field max nan
field sum 0
field sqrsum 0
bin	-inf	0
bin	0	0
bin	1	0
statistic Network.dest "out of order"
field count 0
field mean nan
field stddev nan
field min nan
field max nan
field sum 0
field sqrsum 0
bin	-inf	0
bin	0	0
bin	1	0

