version 2
run General-0-20221126-15:33:34-15872
attr configname General
attr datetime 20221126-15:33:34
attr experiment General
attr inifile omnetpp.ini
attr iterationvars ""
attr iterationvarsf ""
attr measurement ""
attr network Network
attr processid 15872
attr repetition 0
attr replication #0
attr resultdir results
attr runnumber 0
attr seedset 0
param Network.NumOfToRs 5
param Network.NumOfAggregation 3
param Network.rack[*].number_of_hosts 50000
param Network.linedelay 0.2
param Network.tor[*].CacheSize 1000
param Network.agg[*].CacheSize 1000
param Network.controllerswitch.CacheSize 1000
param Network.tor[*].threshold 2
param Network.agg[*].threshold 2
param Network.controllerswitch.threshold 1
param Network.tor[*].Type 1001
param Network.agg[*].Type 1002
param Network.controllerswitch.Type 1003
param Network.rack[*].host[*].flow_appearance "\"\""
param Network.rack[*].host[*].flow_size "\"\""
param Network.policy_size "\"\""
param Network.cache_size "\"\""
param Network.propagation_time "\"\""
param Network.processing_time_on_data_packet_in_sw "\"\""
param Network.processing_time_on_data_packet_in_controller "\"\""
param Network.insertion_delay "\"\""
param Network.eviction_delay "\"\""
param Network.elephant_table_size "\"\""
param Network.flush_elephant_time "\"\""
param Network.check_for_elephant_time "\"\""
param Network.elephant_sample_rx "\"\""
param Network.bandwidth_elephant_threshold "\"\""
param Network.already_requested_threshold "\"\""
param Network.push_threshold_in_aggregation "\"\""
param Network.push_threshold_in_controller_switch "\"\""
param Network.cache_percentage "\"\""
param Network.eviction_sample_size "\"\""
param Network.inter_arrival_time_between_packets "\"\""
param Network.inter_arrival_time_between_flowlets "\"\""
param Network.inter_arrival_time_between_flows "\"\""
param Network.large_flow "\"\""
param Network.last_flow_appearance "\"0\""
param Network.rack[*].last_flow_appearance "\"0\""

vector 0 Network.rack[0].hub flowlet_count ETV
vector 1 Network.rack[1].hub flowlet_count ETV
vector 2 Network.rack[2].hub flowlet_count ETV
vector 3 Network.rack[3].hub flowlet_count ETV
vector 4 Network.rack[4].hub flowlet_count ETV
0	1519846005	3.001	1822866640000
0	1524190955	3.002	114929680000
0	1528506717	3.003	1833084888000
0	1532813871	3.004	2041253872000
0	1537129707	3.005	2616036184000
0	1541435410	3.006	2604397512000
0	1545745992	3.007	47475312000
0	1550077655	3.008	49409224000
0	1554409257	3.009	3644551016000
0	1558723140	3.01	60929008000
0	1563051455	3.011	271523352000
0	1567383624	3.012	4396060048000
0	1571694301	3.013	3598888184000
0	1576011558	3.014	845427488000
0	1580332425	3.015	826960704000
0	1584656117	3.016	28878240000
0	1588964446	3.017	1614828920000
0	1593289969	3.018	1813340848000
0	1597620481	3.019	3610230072000
0	1601932305	3.02	1815994872000
0	1606256669	3.021	5454960728000
0	1610580308	3.022	1856035904000
0	1614930838	3.023	488208184000
0	1619281278	3.024	2042897896000
0	1623609083	3.025	2055383240000
0	1627952414	3.026	61362312000
0	1632288288	3.027	863111688000
0	1636640300	3.028	47615096000
0	1640984184	3.029	2839647040000
0	1645288854	3.03	273840808000
0	1649609939	3.031	3893463352000
0	1653927953	3.032	6195211808000
0	1658246147	3.033	3604134968000
0	1662572222	3.034	1056231064000
0	1666904895	3.035	49874024000
0	1671222997	3.036	3628362952000
0	1675567879	3.037	4393712344000
0	1679883772	3.038	44067784000
0	1684217892	3.039	5392910584000
0	1688547641	3.04	3608603160000
0	1692862499	3.041	2679760568000
0	1697168575	3.042	40905968000
0	1701485175	3.043	1839165480000
0	1705816990	3.044	825921064000
0	1710151236	3.045	4393241464000
0	1714492451	3.046	56565440000
0	1718835668	3.047	2610122712000
0	1723186669	3.048	2095023568000
0	1727515110	3.049	3622482216000
0	1731868049	3.05	2824345112000
0	1736240544	3.051	2837660304000
0	1740598280	3.052	1812765984000
0	1744954590	3.053	30058936000
0	1749320408	3.054	39265344000
0	1753700549	3.055	4871317640000
0	1758065735	3.056	2398219592000
0	1762438202	3.057	2633539272000
0	1766779108	3.058	28082360000
0	1771112456	3.059	75619248000
0	1775480716	3.06	1815234968000
0	1779880064	3.061	1834198728000
0	1784287299	3.062	38887760000
0	1788703785	3.063	1821648496000
0	1793101361	3.064	3609406168000
0	1797514856	3.065	2671837248000
0	1801903426	3.066	69821064000
0	1806308738	3.067	58607936000
0	1810728607	3.068	2638090832000
0	1815124376	3.069	2054799656000
0	1819544416	3.07	1907406968000
0	1823958898	3.071	54930088000
0	1828371262	3.072	1843570728000
0	1832772697	3.073	3614092272000
0	1837132182	3.074	3406154176000
0	1841508371	3.075	2670756280000
0	1845858832	3.076	255613056000
0	1850210728	3.077	1059370704000
0	1854555314	3.078	1040991624000
0	1858892345	3.079	50261464000
0	1863249636	3.08	842934864000
0	1867608086	3.081	44259896000
0	1871935887	3.082	1812789504000
0	1876262890	3.083	1851256096000
0	1880630781	3.084	3403860560000
0	1885016855	3.085	52820864000
0	1889389895	3.086	1824576512000
0	1893757069	3.087	2050969440000
0	1898108890	3.088	2038235992000
0	1902457209	3.089	1812376680000
0	1906838574	3.09	43759896000
0	1911202085	3.091	47866736000
0	1915568228	3.092	1825043608000
0	1919930543	3.093	815135872000
0	1924282606	3.094	4456250136000
0	1928663754	3.095	1818645472000
0	1933034358	3.096	1832093912000
0	1937396701	3.097	250562376000
0	1941753014	3.098	1858377880000
0	1946109463	3.099	85443952000
0	1950477678	3.1	5397708944000
0	1954844937	3.101	2042916032000
0	1959191544	3.102	42165648000
0	1963549839	3.103	47801272000
0	1967910912	3.104	1824932536000
0	1972241669	3.105	830951000000
0	1976587212	3.106	1842468352000
0	1980924504	3.107	42329928000
0	1985263903	3.108	1060220160000
0	1989591608	3.109	3624353008000
0	1993926146	3.11	1830501296000
0	1998271931	3.111	42559920000
0	2002597748	3.112	3062987736000
0	2006923324	3.113	23955296000
0	2011272634	3.114	2823983592000
0	2015650925	3.115	3614800864000
0	2020026140	3.116	1115109088000
0	2024411846	3.117	80254928000
0	2028791913	3.118	3412219688000
0	2033177761	3.119	63779600000
0	2037575482	3.12	1842615048000
0	2041974958	3.121	3613857320000
0	2046369164	3.122	34922968000
0	2050766388	3.123	2625993520000
0	2055152264	3.124	2047440080000
0	2059526585	3.125	2046871048000
0	2063920767	3.126	2834042368000
0	2068331956	3.127	2059933952000
0	2072744469	3.128	1047548704000
0	2077167083	3.129	2840463456000
0	2081562605	3.13	2053906504000
0	2085941762	3.131	48598960000
0	2090310738	3.132	4453403088000
0	2094697856	3.133	2617975392000
0	2099093980	3.134	3622286760000
0	2103500450	3.135	1853800384000
0	2107916715	3.136	2048983776000
0	2112327139	3.137	817086544000
0	2116734412	3.138	42001592000
0	2121161265	3.139	3830155288000
0	2125588508	3.14	247648792000
0	2129997491	3.141	87231136000
0	2134424456	3.142	1834795624000
0	2138857766	3.143	2823896800000
0	2143276991	3.144	55212680000
0	2147711473	3.145	2261598176000
0	2152167491	3.146	1884397864000
0	2156654734	3.147	1629488880000
0	2161157123	3.148	65993112000
0	2165636187	3.149	43601720000
0	2170106298	3.15	827303936000
0	2174572125	3.151	22102432000
0	2179022272	3.152	36794688000
0	2183487061	3.153	1039011656000
0	2187935337	3.154	3814676392000
0	2192386889	3.155	54881744000
0	2196833274	3.156	2608479736000
0	2201279175	3.157	2038069312000
0	2205732981	3.158	34592816000
0	2210150546	3.159	1831858448000
0	2214567380	3.16	52333800000
0	2218975928	3.161	50203064000
0	2223377818	3.162	4410829240000
0	2227816638	3.163	3627539304000
0	2232250399	3.164	27779448000
0	2236673417	3.165	921825552000
0	2241089091	3.166	41234640000
0	2245463453	3.167	1815051584000
0	2249819658	3.168	4634640416000
0	2254195099	3.169	49964200000
0	2258598285	3.17	1824808704000
0	2262996507	3.171	4407766352000
0	2267379766	3.172	38412600000
0	2271772107	3.173	1817253672000
0	2276174851	3.174	499611120000
0	2280562620	3.175	39865760000
0	2284942161	3.176	2073216896000
0	2289315939	3.177	2606167800000
0	2293682013	3.178	3392121960000
0	2298040406	3.179	1892743984000
0	2302392437	3.18	4410309784000
0	2306755062	3.181	258936136000
0	2311122297	3.182	831763976000
0	2315486297	3.183	88614088000
0	2319840325	3.184	2835839368000
0	2324203958	3.185	53364432000
0	2328564496	3.186	1871269016000
0	2332936728	3.187	42236336000
0	2337311371	3.188	1844157032000
0	2341702757	3.189	2625052976000
0	2346077017	3.19	44003224000
0	2350442485	3.191	3628372848000
0	2354811444	3.192	1264334744000
0	2359157259	3.193	57375840000
0	2363531653	3.194	2632817248000
0	2367909271	3.195	276143168000
0	2372308937	3.196	2049849688000
0	2376734584	3.197	490796064000
0	2381150391	3.198	36670736000
0	2385558063	3.199	5208924456000
0	2389979213	3.2	1040009088000
0	2394357274	3.201	59402840000
0	2398700090	3.202	1830710216000
0	2403032274	3.203	43934128000
0	2407376133	3.204	2671379976000
0	2411714416	3.205	2628516248000
0	2416060566	3.206	84485032000
0	2420400166	3.207	3609004512000
0	2424741437	3.208	72313208000
0	2429094437	3.209	842978176000
0	2433441738	3.21	1825456048000
0	2437776802	3.211	31525056000
0	2442081047	3.212	3842523768000
0	2446404351	3.213	115949456000
0	2450774055	3.214	1839859464000
0	2455144816	3.215	1817890616000
0	2459521730	3.216	3826817824000
0	2463890279	3.217	3606507552000
0	2468264447	3.218	894264480000
0	2472617217	3.219	1817655776000
0	2476947957	3.22	1814471576000
0	2481267322	3.221	54069024000
0	2485606835	3.222	2261897064000
0	2489935150	3.223	43292704000
0	2494257824	3.224	1817514144000
0	2498562490	3.225	257766128000
0	2502852758	3.226	1665475808000
0	2507134308	3.227	34234968000
0	2511404945	3.228	1838709256000
0	2515690570	3.229	2036335072000
0	2519967706	3.23	2619957616000
0	2524250306	3.231	320325736000
0	2528507381	3.232	844249304000
0	2532752615	3.233	2042823520000
0	2536968053	3.234	256936152000
0	2541205175	3.235	3410236680000
0	2545453282	3.236	1319106552000
0	2549685989	3.237	3607862944000
0	2553930321	3.238	30126832000
0	2558187533	3.239	3644738488000
0	2562456023	3.24	1830324432000
0	2566723699	3.241	1851675160000
0	2571014557	3.242	1891449888000
0	2575284586	3.243	104764880000
0	2579556716	3.244	820063056000
0	2583796040	3.245	39433192000
0	2588037069	3.246	844760584000
0	2592298131	3.247	1617982056000
0	2596553553	3.248	271674472000
0	2600823031	3.249	50424616000
0	2605071898	3.25	1815502648000
0	2609332142	3.251	5456359728000
0	2613592576	3.252	1891611928000
0	2617852042	3.253	48683264000
0	2622120229	3.254	2124863976000
0	2626382478	3.255	1628816160000
0	2630649115	3.256	3413314888000
0	2634921937	3.257	315763056000
0	2639168922	3.258	3620323336000
0	2643382446	3.259	43083024000
0	2647614098	3.26	1842480352000
0	2651827430	3.261	39223112000
0	2656059568	3.262	6971977616000
0	2660260956	3.263	61807392000
0	2664483165	3.264	98759984000
0	2668713950	3.265	54342000000
0	2672949160	3.266	3393889264000
0	2677149775	3.267	7189262320000
0	2681370605	3.268	55633328000
0	2685572142	3.269	2069501264000
0	2689762393	3.27	1819914992000
0	2693960412	3.271	28718608000
0	2698155419	3.272	2040403840000
0	2702351398	3.273	274418424000
0	2706537269	3.274	2829822872000
0	2710743989	3.275	1831109504000
0	2714939532	3.276	1618260272000
0	2719132200	3.277	1611713328000
0	2723293864	3.278	44285336000
0	2727469083	3.279	3408356912000
0	2731635074	3.28	46792568000
0	2735823429	3.281	7194380232000
0	2739986677	3.282	866132128000
0	2744166450	3.283	1831728248000
0	2748347857	3.284	28865880000
0	2752504678	3.285	30892680000
0	2756661428	3.286	842381888000
0	2760810879	3.287	818634280000
0	2764966070	3.288	819358872000
0	2769120324	3.289	100368120000
0	2773255920	3.29	63390920000
0	2777418019	3.291	66297720000
0	2781581197	3.292	44922496000
0	2785752635	3.293	1813018128000
0	2789932360	3.294	60606200000
0	2794087497	3.295	37033528000
0	2798248059	3.296	55857640000
0	2802411521	3.297	2045719936000
0	2806550063	3.298	2605101488000
0	2810682265	3.299	823722576000
0	2814841728	3.3	45458120000
0	2818983641	3.301	74188120000
0	2823107324	3.302	58887720000
0	2827215956	3.303	2052012184000
0	2831313107	3.304	41680640000
0	2835425962	3.305	1857069360000
0	2839536817	3.306	849513440000
0	2843617091	3.307	1812100720000
0	2847701711	3.308	46735328000
0	2851789404	3.309	1826245744000
0	2855880685	3.31	2840884688000
0	2859963207	3.311	2658950456000
0	2864043888	3.312	3636625992000
0	2868172463	3.313	822868800000
0	2872302442	3.314	30082456000
0	2876420085	3.315	820978552000
0	2880558307	3.316	98077648000
0	2884698306	3.317	523723448000
0	2888833961	3.318	1046083808000
0	2892975117	3.319	27952720000
0	2897107550	3.32	851061560000
0	2901235262	3.321	39448904000
0	2905360225	3.322	56916656000
0	2909478237	3.323	7188644984000
0	2913618265	3.324	97313640000
0	2917761155	3.325	1816650368000
0	2921887472	3.326	6197376768000
0	2926016274	3.327	1841324488000
0	2930166238	3.328	6192647696000
0	2934331900	3.329	5412568568000
0	2938458118	3.33	1826742616000
0	2942614555	3.331	1918344088000
0	2946779464	3.332	1828778216000
0	2950920882	3.333	2643266920000
0	2955095741	3.334	3404133408000
0	2959279797	3.335	1815210176000
0	2963456239	3.336	56621632000
0	2967643464	3.337	1831315448000
0	2971829896	3.338	3603510424000
0	2976030180	3.339	1629562568000
0	2980228045	3.34	28816760000
0	2984430456	3.341	4417201096000
0	2988634247	3.342	66178496000
0	2992862434	3.343	47439096000
0	2997070746	3.344	3611957688000
0	3001318045	3.345	1824668200000
0	3005542517	3.346	2945102960000
0	3009756744	3.347	110944632000
0	3013978844	3.348	2034366656000
0	3018174305	3.349	4424128064000
0	3022395934	3.35	262355040000
0	3026589817	3.351	22369928000
0	3030799669	3.352	2612856592000
0	3035020679	3.353	852766144000
0	3039264450	3.354	848982144000
0	3043481197	3.355	257714496000
0	3047682829	3.356	51747472000
0	3051903993	3.357	1839990704000
0	3056127802	3.358	239214672000
0	3060359896	3.359	6195130488000
0	3064588123	3.36	30156728000
0	3068827017	3.361	1826048848000
0	3073062781	3.362	3651165256000
0	3077306002	3.363	1812101928000
0	3081545146	3.364	2052673776000
0	3085782188	3.365	241917736000
0	3090040384	3.366	1613187408000
0	3094276183	3.367	2884542504000
0	3098546169	3.368	2616786656000
0	3102803622	3.369	2030206352000
0	3107059200	3.37	255145448000
0	3111288879	3.371	3425150704000
0	3115526211	3.372	1831316368000
0	3119763150	3.373	1839956736000
0	3124017748	3.374	58434736000
0	3128263894	3.375	1845648896000
0	3132514119	3.376	69900928000
0	3136745824	3.377	75733168000
0	3140968310	3.378	272668368000
0	3145172898	3.379	104780568000
0	3149383255	3.38	1813470616000
0	3153604163	3.381	1814253312000
0	3157816365	3.382	46222624000
0	3162001967	3.383	2620974784000
0	3166203368	3.384	103261912000
0	3170367387	3.385	58785352000
0	3174540175	3.386	45307176000
0	3178704613	3.387	824721624000
0	3182877937	3.388	1041872400000
0	3187056480	3.389	1820273880000
0	3191241301	3.39	32557064000
0	3195426022	3.391	51413664000
0	3199611311	3.392	133778736000
0	3203796036	3.393	5397220536000
0	3207976017	3.394	4201689888000
0	3212148450	3.395	275389584000
0	3216340046	3.396	32275864000
0	3220544875	3.397	2637471056000
0	3224767914	3.398	105409624000
0	3229015048	3.399	1836780576000
0	3233272246	3.4	3659064688000
0	3237522786	3.401	1833152712000
0	3241757647	3.402	2615397776000
0	3246013789	3.403	1274126280000
0	3250260415	3.404	1630868920000
0	3254514050	3.405	5593240816000
0	3258762032	3.406	5198209968000
0	3263013761	3.407	39221744000
0	3267253054	3.408	1831600552000
0	3271496750	3.409	36085496000
0	3275726420	3.41	1821018840000
0	3279963315	3.411	1819620248000
0	3284187584	3.412	32571240000
0	3288423145	3.413	32150424000
0	3292629254	3.414	49568232000
0	3296876870	3.415	2610821968000
0	3301122669	3.416	53774264000
0	3305372840	3.417	1822042640000
0	3309630636	3.418	26086480000
0	3313865733	3.419	1820228376000
0	3318118431	3.42	47437888000
0	3322369201	3.421	1831629416000
0	3326634526	3.422	59167648000
0	3330904935	3.423	42813216000
0	3335155296	3.424	5178307088000
0	3339426949	3.425	818664216000
0	3343716972	3.426	1832133096000
0	3347978855	3.427	395360520000
0	3352234063	3.428	39599064000
0	3356499309	3.429	3639118648000
0	3360765367	3.43	256662728000
0	3365041815	3.431	1829675352000
0	3369323714	3.432	842923008000
0	3373596139	3.433	270614368000
0	3377849188	3.434	319552216000
0	3382102411	3.435	51929816000
0	3386329195	3.436	1855999304000
0	3390583647	3.437	53855648000
0	3394849901	3.438	4393467488000
0	3399107390	3.439	2615195856000
0	3403361012	3.44	38731984000
0	3407590369	3.441	1901439256000
0	3411822888	3.442	1035622800000
0	3416040960	3.443	1056346264000
0	3420250564	3.444	2049762816000
0	3424476124	3.445	21083288000
0	3428690057	3.446	2609414072000
0	3432885426	3.447	2641824824000
0	3437091806	3.448	38999024000
0	3441296144	3.449	132715208000
0	3445480355	3.45	28618088000
0	3449648676	3.451	33334512000
0	3453817792	3.452	1822716904000
0	3457986608	3.453	484416648000
0	3462148981	3.454	2630369960000
0	3466302642	3.455	57776320000
0	3470457219	3.456	3922101512000
0	3474633893	3.457	2061906768000
0	3478803593	3.458	5251069552000
0	3482978241	3.459	1844363296000
0	3487139331	3.46	35096168000
0	3491293980	3.461	249863192000
0	3495431063	3.462	6180013584000
0	3499567278	3.463	4092232592000
0	3503746632	3.464	5201964440000
0	3507951966	3.465	3640930080000
0	3512149529	3.466	75688536000
0	3516339663	3.467	28678896000
0	3520531873	3.468	1861351312000
0	3524732855	3.469	825036504000
0	3528926795	3.47	1830470680000
0	3533101693	3.471	272582152000
0	3537287479	3.472	1819056232000
0	3541460545	3.473	1902549616000
0	3545631658	3.474	1845588760000
0	3549797166	3.475	51420296000
0	3553975210	3.476	37275464000
0	3558177055	3.477	1611620808000
0	3562379116	3.478	1831793248000
0	3566582729	3.479	1892201112000
0	3570808045	3.48	2616548048000
0	3575014511	3.481	46225552000
0	3579234576	3.482	1848626680000
0	3583467868	3.483	42504880000
0	3587720061	3.484	3416098152000
0	3591931370	3.485	61451056000
0	3596135289	3.486	3642042496000
0	3600341536	3.487	4407792936000
0	3604554715	3.488	2122018464000
0	3608774707	3.489	2622586120000
0	3612976121	3.49	2597520944000
0	3617182773	3.491	1886294880000
0	3621386259	3.492	829583704000
0	3625610252	3.493	1700798368000
0	3629815304	3.494	29344392000
0	3634021437	3.495	1832566736000
0	3638194275	3.496	2036598728000
0	3642351206	3.497	1048725040000
0	3646545633	3.498	1835874448000
0	3650726608	3.499	53274056000
0	3654885757	3.5	70907040000
0	3659065173	3.501	1841649688000
0	3663246566	3.502	257313416000
0	3667412714	3.503	860815288000
0	3671593238	3.504	48278448000
0	3675771156	3.505	821242864000
0	3679940736	3.506	825319608000
0	3684098938	3.507	56017976000
0	3688261446	3.508	41431712000
0	3692399632	3.509	4621868664000
0	3696534467	3.51	1843904184000
0	3700694733	3.511	3389873552000
0	3704859694	3.512	38440984000
0	3709050326	3.513	2160640168000
0	3713235547	3.514	1058188488000
0	3717435823	3.515	1838240200000
0	3721649511	3.516	3620646048000
0	3725839226	3.517	102834984000
0	3730043277	3.518	4396112224000
0	3734226160	3.519	2094392760000
0	3738416194	3.52	2714503464000
0	3742590970	3.521	1843894608000
0	3746728926	3.522	4733932264000
0	3750884671	3.523	3622549568000
0	3755039684	3.524	1845565000000
0	3759222263	3.525	1860020552000
0	3763408580	3.526	1871632264000
0	3767597359	3.527	36192776000
0	3771774792	3.528	3822409984000
0	3775944966	3.529	61996624000
0	3780127030	3.53	2825563312000
0	3784339749	3.531	821712512000
0	3788540244	3.532	70136368000
0	3792760048	3.533	3635013640000
0	3796992268	3.534	57061160000
0	3801222073	3.535	61394208000
0	3805452902	3.536	4690501352000
0	3809689051	3.537	3605820352000
0	3813936214	3.538	2606351232000
0	3818158804	3.539	2046798864000
0	3822368578	3.54	888354584000
0	3826582709	3.541	3604122496000
0	3830790456	3.542	3832145800000
0	3835007788	3.543	2067739904000
0	3839253046	3.544	840683872000
0	3843506887	3.545	82911352000
0	3847747713	3.546	32055944000
0	3851976461	3.547	1056563192000
0	3856202755	3.548	3401588256000
0	3860436230	3.549	833641896000
0	3864669826	3.55	34054456000
0	3868902144	3.551	288897176000
0	3873133093	3.552	47065512000
0	3877346577	3.553	829121192000
0	3881576141	3.554	1839280800000
0	3885801039	3.555	2624627192000
0	3889985863	3.556	250292976000
0	3894151808	3.557	25401784000
0	3898330242	3.558	3623451984000
0	3902524968	3.559	2048051280000
0	3906708012	3.56	1048624120000
0	3910922607	3.561	3619466776000
0	3915152543	3.562	2615305240000
0	3919369011	3.563	829151328000
0	3923585616	3.564	42405056000
0	3927818135	3.565	814516552000
0	3932050732	3.566	5432941896000
0	3936304431	3.567	29798296000
0	3940533001	3.568	1693475528000
0	3944776599	3.569	1828605216000
0	3949039537	3.57	53869008000
0	3953284653	3.571	3623573192000
0	3957511065	3.572	2067217280000
0	3961762514	3.573	59367280000
0	3966006656	3.574	1818257504000
0	3970247133	3.575	260000144000
0	3974446731	3.576	1955731448000
0	3978637397	3.577	30127624000
0	3982834944	3.578	3723939496000
0	3987017948	3.579	1876416344000
0	3991201818	3.58	3623465464000
0	3995399205	3.581	3611221200000
0	3999598931	3.582	947561416000
0	4003780298	3.583	37736216000
0	4007986952	3.584	1859685544000
0	4012166525	3.585	47163808000
0	4016374274	3.586	5605800216000
0	4020560271	3.587	1841524848000
0	4024788212	3.588	1057071904000
0	4029037257	3.589	846860312000
0	4033307811	3.59	2520891016000
0	4037575938	3.591	839745672000
0	4041835097	3.592	1883521200000
0	4046104217	3.593	40115416000
0	4050391278	3.594	3635601376000
0	4054688022	3.595	894299720000
0	4058995728	3.596	270598472000
0	4063308061	3.597	463292416000
0	4067625646	3.598	1626767280000
0	4071952573	3.599	1859756408000
0	4076270234	3.6	837207928000
0	4080583054	3.601	2629657760000
0	4084884865	3.602	1822619744000
0	4089192713	3.603	2625919168000
0	4093512469	3.604	845519608000
0	4097826733	3.605	56667088000
0	4102137527	3.606	828378064000
0	4106439982	3.607	5645035464000
0	4110731580	3.608	2046302128000
0	4115018276	3.609	2623515296000
0	4119265560	3.61	2607013664000
0	4123538322	3.611	6040483016000
0	4127807209	3.612	819965832000
0	4132065487	3.613	895694664000
0	4136313270	3.614	287231520000
0	4140553852	3.615	31535360000
0	4144765675	3.616	1815425232000
0	4148995606	3.617	3836176072000
0	4153250188	3.618	263307024000
0	4157488717	3.619	25931896000
0	4161723773	3.62	43486360000
0	4165977429	3.621	1836360448000
0	4170234081	3.622	1823823448000
0	4174506393	3.623	849228896000
0	4178782001	3.624	3397534944000
0	4183078994	3.625	1852202944000
0	4187374515	3.626	1615080664000
0	4191664526	3.627	1831801224000
0	4195964628	3.628	1846314952000
0	4200264941	3.629	80816480000
0	4204546122	3.63	1816863848000
0	4208845992	3.631	3614154992000
0	4213165522	3.632	838372528000
0	4217478856	3.633	5628509624000
0	4221790331	3.634	113153368000
0	4226106774	3.635	266845280000
0	4230392079	3.636	1885759904000
0	4234686133	3.637	49114056000
0	4238974263	3.638	1939066384000
0	4243212172	3.639	827954880000
0	4247446024	3.64	1901985808000
0	4251680884	3.641	4424154256000
0	4255924562	3.642	832651880000
0	4260153509	3.643	1818954968000
0	4264364728	3.644	52795280000
0	4268589116	3.645	54227320000
0	4272802397	3.646	48016536000
0	4277020249	3.647	84715952000
0	4281230124	3.648	40464664000
0	4285416254	3.649	479910408000
0	4289638404	3.65	1840584632000
0	4293854296	3.651	1814626328000
0	4298071536	3.652	43770256000
0	4302259452	3.653	1036715304000
0	4306427826	3.654	3830519440000
0	4310604591	3.655	1812777496000
0	4314786716	3.656	1818833344000
0	4318973139	3.657	828749952000
0	4323126966	3.658	258867552000
0	4327302519	3.659	1628765528000
0	4331514941	3.66	830981008000
0	4335716346	3.661	32739648000
0	4339908191	3.662	44707560000
0	4344103367	3.663	5413354440000
0	4348299990	3.664	1842832840000
0	4352499056	3.665	818844880000
0	4356693279	3.666	48165592000
0	4360880941	3.667	3603940056000
0	4365065516	3.668	823530000000
0	4369223001	3.669	32917224000
0	4373393026	3.67	261196016000
0	4377573459	3.671	1835085520000
0	4381712532	3.672	56480248000
0	4385872776	3.673	249890848000
0	4390042046	3.674	1827038888000
0	4394201354	3.675	829710256000
0	4398359350	3.676	2618683176000
0	4402520710	3.677	1831895368000
0	4406678988	3.678	6190809624000
0	4410836931	3.679	45809584000
0	4414992676	3.68	103916712000
0	4419149742	3.681	31579144000
0	4423330813	3.682	2705970864000
0	4427511428	3.683	2612240272000
0	4431693899	3.684	822305776000
0	4435897969	3.685	1898889992000
0	4440107790	3.686	20522016000
0	4444307308	3.687	30747824000
0	4448509671	3.688	35021544000
0	4452699381	3.689	3715400216000
0	4456875613	3.69	68642488000
0	4461067269	3.691	884026368000
0	4465237302	3.692	835233456000
0	4469425217	3.693	5657446224000
0	4473594126	3.694	2125078840000
0	4477752033	3.695	901989872000
0	4481908239	3.696	2053150280000
0	4486069019	3.697	3665715296000
0	4490234791	3.698	1839948856000
0	4494397080	3.699	3831420664000
0	4498568391	3.7	834897384000
0	4502746191	3.701	2683048048000
0	4506928624	3.702	2624743528000
0	4511109932	3.703	2064247440000
0	4515295487	3.704	270042360000
0	4519497422	3.705	2435526824000
0	4523680674	3.706	3597165608000
0	4527868220	3.707	37173176000
0	4532049005	3.708	1834142248000
0	4536214520	3.709	1845636176000
0	4540392488	3.71	1834879296000
0	4544578022	3.711	1819215568000
0	4548758663	3.712	826475800000
0	4552947521	3.713	1828601016000
0	4557136886	3.714	2102413288000
0	4561323672	3.715	833033480000
0	4565539129	3.716	2058253384000
0	4569745875	3.717	29695240000
0	4573953320	3.718	485977120000
0	4578191070	3.719	5627433728000
0	4582399638	3.72	4198783552000
0	4586619457	3.721	821602592000
0	4590827876	3.722	76052336000
0	4595062799	3.723	1884828672000
0	4599278099	3.724	145949576000
0	4603495979	3.725	1850331584000
0	4607712166	3.726	853964632000
0	4611922498	3.727	33662392000
0	4616107321	3.728	847740352000
0	4620297335	3.729	2050568552000
0	4624476359	3.73	1881598944000
0	4628663536	3.731	3605667816000
0	4632828885	3.732	263095432000
0	4637006205	3.733	838603624000
0	4641201167	3.734	50823864000
0	4645404992	3.735	3837688472000
0	4649586170	3.736	840312448000
0	4653786661	3.737	59209552000
0	4657993490	3.738	70264664000
0	4662190565	3.739	841237376000
0	4666385460	3.74	5405995152000
0	4670570140	3.741	57700840000
0	4674780440	3.742	7307136880000
0	4678979271	3.743	3817850312000
0	4683162187	3.744	825064504000
0	4687350051	3.745	3605018304000
0	4691556729	3.746	3614892816000
0	4695758603	3.747	103135792000
0	4699976176	3.748	2437265688000
0	4704197761	3.749	60258480000
0	4708447653	3.75	1053945608000
0	4712704702	3.751	2623731304000
0	4716946101	3.752	2684187088000
0	4721156772	3.753	857469496000
0	4725391928	3.754	3828058176000
0	4729620094	3.755	2857106928000
0	4733855275	3.756	2661731312000
0	4738057326	3.757	2046864640000
0	4742263655	3.758	6228518816000
0	4746473505	3.759	41060312000
0	4750699827	3.76	3649231800000
0	4754901059	3.761	257788208000
0	4759110640	3.762	827115344000
0	4763332923	3.763	1833030672000
0	4767532165	3.764	3613718136000
0	4771742106	3.765	36283264000
0	4775968066	3.766	1835986552000
0	4780181793	3.767	4406318504000
0	4784410935	3.768	3672650480000
0	4788640069	3.769	1049364728000
0	4792883487	3.77	2029140768000
0	4797122729	3.771	2059180784000
0	4801371680	3.772	1815125088000
0	4805594768	3.773	1830891568000
0	4809828374	3.774	119494880000
0	4814049368	3.775	3857684872000
0	4818270777	3.776	270146240000
0	4822493132	3.777	1843104384000
0	4826709930	3.778	50730144000
0	4830914145	3.779	44703648000
0	4835118639	3.78	1855733736000
0	4839306589	3.781	2618652672000
0	4843505144	3.782	1838136360000
0	4847718528	3.783	1054877808000
0	4851917221	3.784	35608280000
0	4856112428	3.785	4050289168000
0	4860313540	3.786	2830744512000
0	4864493016	3.787	1856441752000
0	4868678447	3.788	1816364064000
0	4872840422	3.789	1835095352000
0	4876995259	3.79	33650816000
0	4881126891	3.791	36416840000
0	4885243704	3.792	2618467552000
0	4889383631	3.793	272129848000
0	4893510130	3.794	3825543560000
0	4897643510	3.795	2844047248000
0	4901787595	3.796	2668227744000
0	4905956635	3.797	274999632000
0	4910112311	3.798	1873668360000
0	4914257465	3.799	288201680000
0	4918412471	3.8	1826896064000
0	4922587900	3.801	5415268984000
0	4926750640	3.802	855541256000
0	4930909852	3.803	2624151600000
0	4935060550	3.804	273300712000
0	4939203729	3.805	2597772448000
0	4943349036	3.806	1840563152000
0	4947461322	3.807	1846568856000
0	4951597908	3.808	9747185168000
0	4955750722	3.809	41137264000
0	4959910037	3.81	822313128000
0	4964067223	3.811	1061935336000
0	4968243167	3.812	3604054336000
0	4972425281	3.813	58303056000
0	4976614000	3.814	1830040656000
0	4980797269	3.815	53428248000
0	4984976274	3.816	1821850152000
0	4989139399	3.817	2108147744000
0	4993314528	3.818	4399969560000
0	4997528009	3.819	1813324936000
0	5001762264	3.82	841457248000
0	5006004832	3.821	42003448000
0	5010256737	3.822	822374592000
0	5014510083	3.823	3658407840000
0	5018760189	3.824	1631419552000
0	5023025222	3.825	121422768000
0	5027291609	3.826	1843031416000
0	5031559308	3.827	1833604440000
0	5035828939	3.828	2056654536000
0	5040105597	3.829	1823737912000
0	5044368577	3.83	835789120000
0	5048624096	3.831	270034928000
0	5052867667	3.832	237939912000
0	5057112640	3.833	3611775984000
0	5061347240	3.834	3670315192000
0	5065587483	3.835	3636459736000
0	5069829981	3.836	2124159760000
0	5074067616	3.837	2597557792000
0	5078313022	3.838	829392040000
0	5082573294	3.839	2049293416000
0	5086843021	3.84	1887136384000
0	5091102768	3.841	821719776000
0	5095374545	3.842	828888696000
0	5099651776	3.843	2620985032000
0	5103912106	3.844	877927232000
0	5108159379	3.845	1854061928000
0	5112442734	3.846	868443832000
0	5116725528	3.847	44616632000
0	5121006450	3.848	850350216000
0	5125288784	3.849	2694808888000
0	5129575363	3.85	59256232000
0	5133844346	3.851	828688240000
0	5138114426	3.852	2032860104000
0	5142391921	3.853	4393780904000
0	5146660196	3.854	35984424000
0	5150945946	3.855	43555704000
0	5155225193	3.856	1824530048000
0	5159471258	3.857	2638092616000
0	5163720254	3.858	22574896000
0	5167970057	3.859	2635057408000
0	5172209052	3.86	99403272000
0	5176448629	3.861	1856278928000
0	5180675374	3.862	51188912000
0	5184926567	3.863	3421880576000
0	5189183423	3.864	1818516800000
0	5193431857	3.865	873683456000
0	5197674026	3.866	1835276272000
0	5201904992	3.867	1243593504000
0	5206118554	3.868	1813489904000
0	5210331524	3.869	48053488000
0	5214538561	3.87	64307568000
0	5218758029	3.871	5396465472000
0	5222962153	3.872	47724992000
0	5227175598	3.873	2674823704000
0	5231400526	3.874	1052801856000
0	5235614227	3.875	3621880320000
0	5239824880	3.876	2837813000000
0	5244015054	3.877	36220944000
0	5248210070	3.878	65218576000
0	5252423949	3.879	846674464000
0	5256659789	3.88	879812112000
0	5260910017	3.881	1844172160000
0	5265152833	3.882	1848488824000
0	5269366986	3.883	854615360000
0	5273555872	3.884	5457814680000
0	5277747604	3.885	2629040248000
0	5281929541	3.886	5417180280000
0	5286136509	3.887	2298514344000
0	5290330660	3.888	1817061536000
0	5294558522	3.889	1616764752000
0	5298768090	3.89	1843245408000
0	5302948235	3.891	1811208048000
0	5307123648	3.892	833836504000
0	5311296946	3.893	257607720000
0	5315466793	3.894	42493416000
0	5319629367	3.895	496459792000
0	5323795681	3.896	248798376000
0	5327955882	3.897	2043708128000
0	5332143530	3.898	2614116712000
0	5336329563	3.899	2068909408000
0	5340519023	3.9	2607644280000
0	5344673592	3.901	844012912000
0	5348852129	3.902	1837644344000
0	5353022405	3.903	2614736712000
0	5357202866	3.904	2622910968000
0	5361392266	3.905	3855994424000
0	5365606959	3.906	2459096408000
0	5369816213	3.907	47438496000
0	5374006708	3.908	1903618520000
0	5378214416	3.909	1817772896000
0	5382419687	3.91	3837519520000
0	5386653885	3.911	101937992000
0	5390893056	3.912	889095400000
0	5395163793	3.913	1840875992000
0	5399428397	3.914	1829818440000
0	5403675483	3.915	2042918488000
0	5407940076	3.916	20915136000
0	5412209816	3.917	1843644304000
0	5416477861	3.918	80428920000
0	5420749286	3.919	1836826472000
0	5425007607	3.92	1838833832000
0	5429282088	3.921	1831271560000
0	5433549011	3.922	2621745528000
0	5437812384	3.923	4404281768000
0	5442072484	3.924	252782864000
0	5446349513	3.925	2631653936000
0	5450616094	3.926	1827400368000
0	5454879700	3.927	846730792000
0	5459158035	3.928	1066968720000
0	5463415859	3.929	3206736240000
0	5467697630	3.93	1891300264000
0	5471976718	3.931	28596024000
0	5476243345	3.932	42168680000
0	5480509744	3.933	34029976000
0	5484782370	3.934	3426852384000
0	5489065383	3.935	56932400000
0	5493346481	3.936	258481040000
0	5497626831	3.937	1825130496000
0	5501914622	3.938	821481224000
0	5506187228	3.939	2625088576000
0	5510480373	3.94	1815757264000
0	5514750994	3.941	47054792000
0	5519036290	3.942	261015696000
0	5523319742	3.943	1808326296000
0	5527600222	3.944	37433520000
0	5531877912	3.945	39425904000
0	5536136659	3.946	2610621168000
0	5540393902	3.947	2889750104000
0	5544647806	3.948	1062461560000
0	5548923302	3.949	1860554424000
0	5553219514	3.95	820888152000
0	5557500677	3.951	2603928272000
0	5561761454	3.952	3595705848000
0	5566041113	3.953	1844316552000
0	5570341912	3.954	134800184000
0	5574629483	3.955	2424398080000
0	5578882376	3.956	141152048000
0	5583151860	3.957	87511688000
0	5587391158	3.958	6989211104000
0	5591630376	3.959	259675632000
0	5595879317	3.96	62172600000
0	5600132212	3.961	100490656000
0	5604365645	3.962	98312840000
0	5608597297	3.963	2852426328000
0	5612865758	3.964	1894479968000
0	5617102587	3.965	1832441072000
0	5621321939	3.966	39135576000
0	5625534017	3.967	1824855640000
0	5629754026	3.968	839182720000
0	5633973278	3.969	47791760000
0	5638191070	3.97	833285496000
0	5642409130	3.971	1854102832000
0	5646631320	3.972	41379184000
0	5650840538	3.973	850631280000
0	5655037803	3.974	2050018144000
0	5659260158	3.975	101050448000
0	5663467673	3.976	47091296000
0	5667700823	3.977	37083048000
0	5671936353	3.978	3836317464000
0	5676169884	3.979	4398715352000
0	5680414968	3.98	3886702264000
0	5684674389	3.981	1835611944000
0	5688942416	3.982	259481192000
0	5693179018	3.983	2253128696000
0	5697412317	3.984	1810703080000
0	5701661688	3.985	4424194976000
0	5705910210	3.986	1832477328000
0	5710153400	3.987	3406528032000
0	5714375596	3.988	82245168000
0	5718595127	3.989	48199416000
0	5722814321	3.99	1864264024000
0	5727048949	3.991	40901008000
0	5731284024	3.992	3639853448000
0	5735514467	3.993	1824682696000
0	5739747676	3.994	75882200000
0	5743954948	3.995	36765504000
0	5748165193	3.996	1817003088000
0	5752379739	3.997	4992002992000
0	5756618601	3.998	82573384000
0	5760845694	3.999	1838614360000
0	5765084674	4	2650489992000
0	5769319562	4.001	57040288000
0	5773530983	4.002	34103216000
0	5777759690	4.003	3633230528000
0	5781996875	4.004	1825353224000
0	5786230715	4.005	3604241400000
0	5790452217	4.006	2279504416000
0	5794652335	4.007	1025961496000
0	5798861861	4.008	1857768264000
0	5803075287	4.009	38035360000
0	5807278060	4.01	2035499920000
0	5811473153	4.011	1874010784000
0	5815681770	4.012	1841012008000
0	5819878051	4.013	4627785000000
0	5824064003	4.014	31021320000
0	5828252248	4.015	51853008000
0	5832464939	4.016	2050923608000
0	5836687783	4.017	160250736000
0	5840896781	4.018	25676248000
0	5845122857	4.019	4424889200000
0	5849352855	4.02	2679692848000
0	5853595284	4.021	129401144000
0	5857844704	4.022	846377392000
0	5862071793	4.023	1827693464000
0	5866291050	4.024	5408331040000
0	5870509313	4.025	832579448000
0	5874734287	4.026	63987384000
0	5878964672	4.027	4620762336000
0	5883213847	4.028	1845090088000
0	5887455915	4.029	3608907120000
0	5891718163	4.03	1842000912000
0	5895973565	4.031	1839504832000
0	5900221505	4.032	26091344000
0	5904462387	4.033	48006488000
0	5908705095	4.034	2825358584000
0	5912942915	4.035	829537296000
0	5917184283	4.036	40517208000
0	5921431382	4.037	123230200000
0	5925686898	4.038	5646962584000
0	5929913289	4.039	3591091216000
0	5934153058	4.04	1634648552000
0	5938401040	4.041	33495600000
0	5942670241	4.042	1856385864000
0	5946933153	4.043	1827585480000
0	5951206128	4.044	47810488000
0	5955477522	4.045	887665592000
0	5959731327	4.046	62063064000
0	5963978421	4.047	373489208000
0	5968221480	4.048	3601833200000
0	5972485157	4.049	1878997360000
0	5976732808	4.05	2621322592000
0	5980973181	4.051	38156312000
0	5985218165	4.052	1111657720000
0	5989456444	4.053	1914583136000
0	5993657862	4.054	1817550416000
0	5997866070	4.055	3397906624000
0	6002076979	4.056	2890693048000
0	6006301685	4.057	1856279232000
0	6010554211	4.058	2109068856000
0	6014822400	4.059	2062026048000
0	6019091314	4.06	1833006776000
0	6023346164	4.061	2044513000000
0	6027601029	4.062	2608402328000
0	6031837746	4.063	50185656000
0	6036074819	4.064	831075672000
0	6040320802	4.065	22251784000
0	6044536423	4.066	1833970720000
0	6048765575	4.067	250792112000
0	6052991632	4.068	102992432000
0	6057240721	4.069	1848839448000
0	6061477332	4.07	2259840624000
0	6065723106	4.071	53196400000
0	6069941281	4.072	251068616000
0	6074150666	4.073	72997600000
0	6078347044	4.074	1615747360000
0	6082537479	4.075	46133632000
0	6086725371	4.076	3468226112000
0	6090940981	4.077	52617496000
0	6095155249	4.078	1619237680000
0	6099342812	4.079	1844716056000
0	6103529799	4.08	43570400000
0	6107737922	4.081	1817495816000
0	6111970886	4.082	35922264000
0	6116206253	4.083	264426024000
0	6120440589	4.084	1891881272000
0	6124681909	4.085	3602135840000
0	6128922034	4.086	3604435048000
0	6133166003	4.087	96964856000
0	6137396251	4.088	1814964488000
0	6141617442	4.089	1818695064000
0	6145855677	4.09	2858115960000
0	6150088054	4.091	4388062528000
0	6154321467	4.092	832322992000
0	6158547802	4.093	48789384000
0	6162778282	4.094	44678000000
0	6167010305	4.095	1850343728000
0	6171221054	4.096	1820712912000
0	6175431958	4.097	2107283040000
0	6179651324	4.098	62454560000
0	6183887113	4.099	3662139800000
0	6188130070	4.1	42738328000
0	6192362002	4.101	43197504000
0	6196616101	4.102	1085536968000
0	6200833105	4.103	67555528000
0	6205019908	4.104	57138448000
0	6209198369	4.105	1693136664000
0	6213377650	4.106	830377768000
0	6217564817	4.107	838333872000
0	6221735323	4.108	832169104000
0	6225904740	4.109	30249304000
0	6230057225	4.11	68054344000
0	6234207429	4.111	2603561280000
0	6238364989	4.112	3845892352000
0	6242504539	4.113	2613700856000
0	6246661080	4.114	2050035264000
0	6250821359	4.115	55372368000
0	6254987742	4.116	835068960000
0	6259145096	4.117	1823901344000
0	6263321245	4.118	44823920000
0	6267484391	4.119	1841952568000
0	6271632757	4.12	2647073480000
0	6275771782	4.121	4390622832000
0	6279896175	4.122	1828065064000
0	6284035705	4.123	1635772296000
0	6288171660	4.124	4063699504000
0	6292322789	4.125	1836292800000
0	6296446015	4.126	2608880560000
0	6300540031	4.127	2056670056000
0	6304606114	4.128	2824934264000
0	6308671214	4.129	4378824544000
0	6312743968	4.13	55411744000
0	6316817449	4.131	68728824000
0	6320876895	4.132	842261048000
0	6324928488	4.133	1841213272000
0	6328977823	4.134	1857466344000
0	6333030700	4.135	2051645760000
0	6337104050	4.136	1845025664000
0	6341192937	4.137	46085008000
0	6345270236	4.138	827976496000
0	6349340146	4.139	321517528000
0	6353401968	4.14	289394008000
0	6357490400	4.141	3610856032000
0	6361564517	4.142	4601390552000
0	6365640063	4.143	1831650600000
0	6369713560	4.144	41545416000
0	6373781148	4.145	33448776000
0	6377858191	4.146	1846313040000
0	6381950430	4.147	831891896000
0	6386050394	4.148	78123760000
0	6390144621	4.149	44244224000
0	6394251210	4.15	2664719656000
0	6398362266	4.151	825001680000
0	6402492158	4.152	832271984000
0	6406617153	4.153	46320280000
0	6410731506	4.154	36810616000
0	6414865290	4.155	3427316336000
0	6419009208	4.156	826891464000
0	6423157558	4.157	3610795200000
0	6427302021	4.158	57855768000
0	6431471360	4.159	1825176568000
0	6435652472	4.16	1888164168000
0	6439839450	4.161	1820867376000
0	6444021537	4.162	74383728000
0	6448166254	4.163	3616617616000
0	6452322423	4.164	822566344000
0	6456490009	4.165	53742472000
0	6460637274	4.166	2908075304000
0	6464797205	4.167	1853544312000
0	6468942602	4.168	825895464000
0	6473084277	4.169	1046491368000
0	6477235401	4.17	1822381232000
0	6481386612	4.171	1825653968000
0	6485554405	4.172	5385361648000
0	6489709284	4.173	1828359632000
0	6493897704	4.174	3595051360000
0	6498082653	4.175	33580600000
0	6502257709	4.176	1608756344000
0	6506439470	4.177	42895008000
0	6510618296	4.178	2041761168000
0	6514809864	4.179	51389632000
0	6518990631	4.18	246503728000
0	6523197708	4.181	3616646072000
0	6527360287	4.182	1825711040000
0	6531515291	4.183	263536728000
0	6535674513	4.184	1831434640000
0	6539833891	4.185	1845162152000
0	6543996923	4.186	1889170792000
0	6548196132	4.187	1816396392000
0	6552422123	4.188	3405132912000
0	6556672514	4.189	3830265880000
0	6560906602	4.19	2614679264000
0	6565134729	4.191	1837425976000
0	6569355052	4.192	2835753088000
0	6573599217	4.193	55601896000
0	6577834576	4.194	24783032000
0	6582055667	4.195	1826747752000
0	6586276193	4.196	52918816000
0	6590490551	4.197	1834779144000
0	6594704657	4.198	1031495432000
0	6598919846	4.199	31985376000
0	6603129491	4.2	1829267608000
0	6607349681	4.201	2049636000000
0	6611560289	4.202	36797568000
0	6615790081	4.203	5854463712000
0	6620023443	4.204	1812989320000
0	6624235448	4.205	256372968000
0	6628444295	4.206	51675624000
0	6632642323	4.207	3604359160000
0	6636846481	4.208	1846099016000
0	6641058503	4.209	5616432088000
0	6645293483	4.21	1835308376000
0	6649545270	4.211	841792048000
0	6653771432	4.212	3679931552000
0	6657995492	4.213	850765088000
0	6662208009	4.214	250461304000
0	6666420722	4.215	45761592000
0	6670629901	4.216	3633880760000
0	6674864929	4.217	58843920000
0	6679102335	4.218	45967032000
0	6683323771	4.219	67619352000
0	6687554248	4.22	1860830104000
0	6691783842	4.221	2624920192000
0	6695989721	4.222	818470032000
0	6700226610	4.223	1816741664000
0	6704452861	4.224	2269897488000
0	6708677554	4.225	268483200000
0	6712926953	4.226	1822352048000
0	6717176350	4.227	1820936656000
0	6721419642	4.228	1853904144000
0	6725686073	4.229	1047525432000
0	6729961438	4.23	2040734568000
0	6734218242	4.231	56038792000
0	6738460038	4.232	47575408000
0	6742678085	4.233	822841448000
0	6746900201	4.234	471442024000
0	6751140938	4.235	7191214160000
0	6755378570	4.236	1822100064000
0	6759611242	4.237	1831439400000
0	6763865129	4.238	285016800000
0	6768124132	4.239	4415880344000
0	6772405020	4.24	3820992112000
0	6776680528	4.241	258119552000
0	6780973035	4.242	1063688608000
0	6785260851	4.243	1894325728000
0	6789557047	4.244	1616612072000
0	6793854596	4.245	59696648000
0	6798160339	4.246	1829331928000
0	6802472938	4.247	1814471168000
0	6806756612	4.248	5610752824000
0	6811020252	4.249	37169720000
0	6815289470	4.25	273250400000
0	6819560623	4.251	48100080000
0	6823849497	4.252	1856626488000
0	6828132833	4.253	5389094768000
0	6832405994	4.254	1832920208000
0	6836684804	4.255	2829318328000
0	6840973199	4.256	2643174360000
0	6845269967	4.257	1857674016000
0	6849540711	4.258	274027728000
0	6853807395	4.259	48041576000
0	6858058536	4.26	55357320000
0	6862333089	4.261	3672336032000
0	6866588943	4.262	2035268072000
0	6870825134	4.263	253159672000
0	6875103616	4.264	877908512000
0	6879386421	4.265	68805392000
0	6883632081	4.266	1821178072000
0	6887917098	4.267	1827504288000
0	6892175878	4.268	67255968000
0	6896425527	4.269	40905504000
0	6900685334	4.27	1822244160000
0	6904947807	4.271	32211408000
0	6909235314	4.272	5408321184000
0	6913548842	4.273	831786288000
0	6917872467	4.274	1901629840000
0	6922195597	4.275	3822862096000
0	6926492801	4.276	1053016920000
0	6930799933	4.277	2695639648000
0	6935087678	4.278	835724896000
0	6939358028	4.279	3650304144000
0	6943615676	4.28	3411995080000
0	6947874120	4.281	48276256000
0	6952130820	4.282	2126145496000
0	6956399857	4.283	3607983704000
0	6960664339	4.284	3891957592000
0	6964922434	4.285	95702152000
0	6969180093	4.286	93314712000
0	6973459264	4.287	3457023632000
0	6977726156	4.288	243431936000
0	6982029505	4.289	538645568000
0	6986363967	4.29	4400849784000
0	6990686091	4.291	3453090376000
0	6994996051	4.292	842464504000
0	6999308483	4.293	3597621680000
0	7003595197	4.294	3625495720000
0	7007910776	4.295	2605322512000
0	7012215483	4.296	35670712000
0	7016517039	4.297	96586544000
0	7020803904	4.298	34073440000
0	7025084537	4.299	3608622704000
0	7029353691	4.3	1816829976000
0	7033623152	4.301	879883912000
0	7037918012	4.302	842843584000
0	7042201092	4.303	4422144272000
0	7046494983	4.304	2827480472000
0	7050782536	4.305	3604309024000
0	7055066488	4.306	1827966296000
0	7059348984	4.307	47298032000
0	7063637618	4.308	914199736000
0	7067930802	4.309	2612903904000
0	7072217719	4.31	48298720000
0	7076523757	4.311	1817281984000
0	7080800768	4.312	292136264000
0	7085092136	4.313	1065393752000
0	7089399588	4.314	4415590920000
0	7093692950	4.315	831086328000
0	7097984351	4.316	7232184920000
0	7102255080	4.317	56464176000
0	7106503168	4.318	50169064000
0	7110777865	4.319	861471488000
0	7115028836	4.32	1832277960000
0	7119285390	4.321	1832638704000
0	7123563388	4.322	1848803912000
0	7127838005	4.323	5387025112000
0	7132101514	4.324	2617937304000
0	7136375753	4.325	1617091840000
0	7140653295	4.326	1836214656000
0	7144934750	4.327	23910784000
0	7149206541	4.328	3654801096000
0	7153492234	4.329	5976676600000
0	7157799289	4.33	1889152784000
0	7162112399	4.331	832145032000
0	7166425475	4.332	1835564352000
0	7170734881	4.333	42797848000
0	7175026475	4.334	2038312608000
0	7179316141	4.335	2613494024000
0	7183583613	4.336	45894488000
0	7187846540	4.337	61469224000
0	7192095474	4.338	5426833032000
0	7196343957	4.339	41416416000
0	7200586252	4.34	1836930600000
0	7204820106	4.341	48494496000
0	7209054318	4.342	1825238488000
0	7213286946	4.343	3616575696000
0	7217539856	4.344	257739024000
0	7221784855	4.345	835773424000
0	7226026058	4.346	1833545536000
0	7230269699	4.347	52095272000
0	7234534185	4.348	832686616000
0	7238778140	4.349	106965008000
0	7243018104	4.35	1633590912000
0	7247246653	4.351	3615700520000
0	7251510283	4.352	34272752000
0	7255756491	4.353	260323688000
0	7259996508	4.354	866793272000
0	7264227774	4.355	864501304000
0	7268459807	4.356	36661152000
0	7272676481	4.357	101808376000
0	7276881054	4.358	1847909944000
0	7281105095	4.359	2397492960000
0	7285315390	4.36	2065383640000
0	7289546003	4.361	48866504000
0	7293789873	4.362	50049032000
0	7298039467	4.363	32778408000
0	7302312275	4.364	881774176000
0	7306557728	4.365	1625371104000
0	7310816969	4.366	2064376088000
0	7315060490	4.367	1687222496000
0	7319313388	4.368	813712088000
0	7323555433	4.369	1862051056000
0	7327802440	4.37	1833919560000
0	7332024411	4.371	840703336000
0	7336262326	4.372	1835722776000
0	7340507927	4.373	48855760000
0	7344783080	4.374	2100492888000
0	7349082133	4.375	265565256000
0	7353323242	4.376	29264816000
0	7357547967	4.377	29401200000
0	7361769999	4.378	2620890472000
0	7365975293	4.379	37043640000
0	7370197774	4.38	5412767576000
0	7374440540	4.381	1828091760000
0	7378689774	4.382	3827128928000
0	7382946117	4.383	1825120312000
0	7387190325	4.384	3411823832000
0	7391465211	4.385	3612146200000
0	7395696843	4.386	1835326040000
0	7399927478	4.387	2839842184000
0	7404149053	4.388	1053940160000
0	7408368201	4.389	270996336000
0	7412586118	4.39	5406216624000
0	7416819358	4.391	100266208000
0	7421039137	4.392	313768440000
0	7425273616	4.393	2615528536000
0	7429500882	4.394	38607888000
0	7433767719	4.395	1829398768000
0	7438007772	4.396	2040974376000
0	7442246521	4.397	3603540880000
0	7446473119	4.398	1850235768000
0	7450690553	4.399	42100120000
0	7454879326	4.4	1879517120000
0	7459098591	4.401	48238296000
0	7463307650	4.402	37720608000
0	7467514008	4.403	3603636904000
0	7471711972	4.404	2610208080000
0	7475905495	4.405	38773088000
0	7480102053	4.406	34649864000
0	7484293760	4.407	5178415280000
0	7488473118	4.408	34783944000
0	7492646501	4.409	1625006696000
0	7496826106	4.41	1611973336000
0	7500999734	4.411	47027240000
0	7505181478	4.412	3615399008000
0	7509398211	4.413	1839547576000
0	7513591805	4.414	1900529056000
0	7517793476	4.415	119737800000
0	7521985017	4.416	833153864000
0	7526204523	4.417	91754168000
0	7530427691	4.418	45140064000
0	7534645273	4.419	1839621192000
0	7538856527	4.42	3892172144000
0	7543055273	4.421	1828047216000
0	7547268629	4.422	38965488000
0	7551473515	4.423	118787976000
0	7555678598	4.424	2630784984000
0	7559896506	4.425	104350456000
0	7564090116	4.426	3609027432000
0	7568300312	4.427	2037200664000
0	7572501857	4.428	1822259792000
0	7576722323	4.429	2620493304000
0	7580944145	4.43	835678456000
0	7585173104	4.431	828599696000
0	7589401970	4.432	3605305464000
0	7593645644	4.433	56084752000
0	7597883581	4.434	26483176000
0	7602129571	4.435	6180956432000
0	7606368977	4.436	2041406776000
0	7610634159	4.437	1830740816000
0	7614885563	4.438	3625951456000
0	7619121953	4.439	822940640000
0	7623315014	4.44	27497640000
0	7627515287	4.441	2596323992000
0	7631723999	4.442	2023989288000
0	7635926872	4.443	90559600000
0	7640140113	4.444	888160080000
0	7644365228	4.445	4433950976000
0	7648603926	4.446	44915256000
0	7652851613	4.447	1845874832000
0	7657114996	4.448	1815852328000
0	7661374199	4.449	1665594976000
0	7665634867	4.45	1819076904000
0	7669884722	4.451	2614368304000
0	7674121905	4.452	1826529040000
0	7678363591	4.453	2599868992000
0	7682609775	4.454	3391216376000
0	7686863996	4.455	3618747728000
0	7691151076	4.456	4474241392000
0	7695436298	4.457	29947672000
0	7699702014	4.458	47989688000
0	7703970353	4.459	1821170384000
0	7708220782	4.46	30041840000
0	7712475011	4.461	833319512000
0	7716753159	4.462	1844373048000
0	7721037131	4.463	851489624000
0	7725298441	4.464	3471784480000
0	7729581686	4.465	57114776000
0	7733860700	4.466	5388864408000
0	7738129728	4.467	3395909096000
0	7742394254	4.468	3636881392000
0	7746689898	4.469	829437072000
0	7750971949	4.47	1831249632000
0	7755268773	4.471	2818059888000
0	7759559250	4.472	2406574056000
0	7763855040	4.473	838367768000
0	7768175629	4.474	3624515864000
0	7772488153	4.475	1924966456000
0	7776797388	4.476	4391296752000
0	7781116445	4.477	1840062536000
0	7785424195	4.478	1830292888000
0	7789763546	4.479	259296264000
0	7794082813	4.48	45101896000
0	7798404092	4.481	33801224000
0	7802734359	4.482	2607643080000
0	7807092992	4.483	52248352000
0	7811456202	4.484	1808183768000
0	7815807277	4.485	839555800000
0	7820172873	4.486	104605488000
0	7824521585	4.487	1823630824000
0	7828886483	4.488	44567048000
0	7833251025	4.489	1829515272000
0	7837609105	4.49	2603133008000
0	7841966165	4.491	1865863440000
0	7846317535	4.492	1827330200000
0	7850659367	4.493	1830086224000
0	7854972117	4.494	831554632000
0	7859287030	4.495	1830891448000
0	7863613654	4.496	261809992000
0	7867934945	4.497	258774272000
0	7872242520	4.498	4400063584000
0	7876546213	4.499	2096553640000
0	7880840480	4.5	3637418456000
0	7885114283	4.501	47537088000
0	7889358106	4.502	1827384496000
0	7893625005	4.503	325689560000
0	7897901876	4.504	4206096920000
0	7902168616	4.505	5970206920000
0	7906435064	4.506	2609602952000
0	7910744673	4.507	4397180664000
0	7915053163	4.508	1830408872000
0	7919381223	4.509	272344632000
0	7923674179	4.51	3401940352000
0	7927964910	4.511	819590800000
0	7932279877	4.512	36417872000
0	7936585344	4.513	1849675168000
0	7940931071	4.514	60282272000
0	7945256969	4.515	91645736000
0	7949575913	4.516	2048041680000
0	7953899454	4.517	263017184000
0	7958200490	4.518	91244560000
0	7962502405	4.519	31346856000
0	7966799238	4.52	1913911648000
0	7971099065	4.521	1827978280000
0	7975363272	4.522	250650120000
0	7979647002	4.523	1822011504000
0	7983915892	4.524	5422030264000
0	7988208915	4.525	1828820944000
0	7992492688	4.526	2034413856000
0	7996757381	4.527	1824896392000
0	8000989566	4.528	55830464000
0	8005262262	4.529	899111504000
0	8009528836	4.53	1282462032000
0	8013789292	4.531	55460800000
0	8018078158	4.532	39553320000
0	8022376136	4.533	1871839696000
0	8026680913	4.534	2610407784000
0	8030967059	4.535	64465656000
0	8035240851	4.536	5607526720000
0	8039509825	4.537	55425984000
0	8043797543	4.538	2604766344000
0	8048094040	4.539	842230768000
0	8052388808	4.54	814788800000
0	8056688138	4.541	65724160000
0	8060981061	4.542	39158704000
0	8065267413	4.543	2612242296000
0	8069553837	4.544	59200528000
0	8073845864	4.545	39234064000
0	8078127203	4.546	1846930840000
0	8082388978	4.547	276348928000
0	8086670151	4.548	61156760000
0	8090976842	4.549	62300256000
0	8095287525	4.55	2682735296000
0	8099596522	4.551	2036687992000
0	8103901104	4.552	3617451728000
0	8108190121	4.553	3409852064000
0	8112437754	4.554	1810261800000
0	8116702742	4.555	1337946776000
0	8120977245	4.556	1817773512000
0	8125254325	4.557	2911182880000
0	8129550328	4.558	4855060688000
0	8133860714	4.559	821109864000
0	8138171938	4.56	3631938744000
0	8142498810	4.561	3621256552000
0	8146820209	4.562	1818034888000
0	8151147821	4.563	3684640216000
0	8155472576	4.564	2075873368000
0	8159806344	4.565	281632936000
0	8164126819	4.566	1062642248000
0	8168438131	4.567	1607647912000
0	8172749991	4.568	1820294840000
0	8177035327	4.569	30581440000
0	8181335110	4.57	65384824000
0	8185676324	4.571	58396512000
0	8189991882	4.572	43991640000
0	8194320489	4.573	258961152000
0	8198614036	4.574	3608425192000
0	8202922574	4.575	459696720000
0	8207217287	4.576	2077256504000
0	8211525373	4.577	3611979256000
0	8215820551	4.578	2641156560000
0	8220135578	4.579	1838411960000
0	8224445286	4.58	4443108664000
0	8228746031	4.581	29962216000
0	8233044400	4.582	3607998024000
0	8237324262	4.583	1614224216000
0	8241617853	4.584	1843080696000
0	8245880896	4.585	51161568000
0	8250143890	4.586	471053352000
0	8254410619	4.587	843793200000
0	8258664769	4.588	1816267664000
0	8262923666	4.589	3607788832000
0	8267203089	4.59	89403544000
0	8271488463	4.591	52366744000
0	8275771655	4.592	65632104000
0	8280038823	4.593	6990135632000
0	8284312890	4.594	1835325912000
0	8288590251	4.595	1845470392000
0	8292860292	4.596	90453760000
0	8297114200	4.597	3400410872000
0	8301350465	4.598	28745104000
0	8305579854	4.599	2037650952000
0	8309805687	4.6	821220264000
0	8314047807	4.601	844953768000
0	8318285319	4.602	48981552000
0	8322505648	4.603	1839904344000
0	8326742130	4.604	3634217984000
0	8330987294	4.605	248887768000
0	8335217103	4.606	4382415840000
0	8339431132	4.607	1896428256000
0	8343669206	4.608	41656016000
0	8347892906	4.609	4600190256000
0	8352124352	4.61	5472678016000
0	8356344711	4.611	830248400000
0	8360553857	4.612	32620824000
0	8364769332	4.613	25885504000
0	8368953879	4.614	1819402184000
0	8373115651	4.615	2692294160000
0	8377262688	4.616	813405152000
0	8381396274	4.617	831692520000
0	8385521150	4.618	2039565616000
0	8389657071	4.619	273427920000
0	8393776261	4.62	1114049920000
0	8397911720	4.621	272524000000
0	8402036171	4.622	43944288000
0	8406170517	4.623	852878864000
0	8410294047	4.624	2039839208000
0	8414391828	4.625	2618984120000
0	8418484534	4.626	31504840000
0	8422590757	4.627	2044797840000
0	8426706161	4.628	100940608000
0	8430814077	4.629	1820657480000
0	8434930576	4.63	337495136000
0	8439050477	4.631	888320000000
0	8443161646	4.632	67851640000
0	8447265246	4.633	27227880000
0	8451380401	4.634	56016848000
0	8455488329	4.635	821321912000
0	8459611765	4.636	55400136000
0	8463693557	4.637	826982024000
0	8467781280	4.638	90166088000
0	8471900740	4.639	45014448000
0	8476000216	4.64	45750032000
0	8480100905	4.641	1839581392000
0	8484201035	4.642	927773024000
0	8488305808	4.643	4623655232000
0	8492424907	4.644	52456696000
0	8496563647	4.645	2053079832000
0	8500699796	4.646	50532440000
0	8504846509	4.647	839144688000
0	8509015778	4.648	32075016000
0	8513163079	4.649	259627120000
0	8517300029	4.65	3627567480000
0	8521439847	4.651	1803314960000
0	8525595755	4.652	2833869760000
0	8529751187	4.653	5396219024000
0	8533914476	4.654	44112912000
0	8538084311	4.655	30333912000
0	8542236392	4.656	1839322736000
0	8546377156	4.657	4464510816000
0	8550514968	4.658	871347176000
0	8554675778	4.659	830878192000
0	8558849822	4.66	826009592000
0	8563031896	4.661	832724720000
0	8567214121	4.662	56182056000
0	8571378701	4.663	1049775472000
0	8575525842	4.664	1825031584000
0	8579695044	4.665	1827286928000
0	8583844066	4.666	258970176000
0	8587978182	4.667	1815390328000
0	8592109017	4.668	3676130560000
0	8596213067	4.669	54180056000
0	8600325538	4.67	1850721064000
0	8604425624	4.671	835045784000
0	8608528223	4.672	2621465288000
0	8612619817	4.673	31424088000
0	8616709192	4.674	832249808000
0	8620807426	4.675	846652616000
0	8624927159	4.676	3437562064000
0	8629059781	4.677	35094504000
0	8633170281	4.678	820538984000
0	8637272617	4.679	39266840000
0	8641397300	4.68	277497864000
0	8645530469	4.681	2618262192000
0	8649677462	4.682	47142552000
0	8653819869	4.683	824685600000
0	8657953653	4.684	64798160000
0	8662075928	4.685	1809924424000
0	8666202356	4.686	2616467920000
0	8670341564	4.687	2069442560000
0	8674514794	4.688	1838612032000
0	8678665490	4.689	844797600000
0	8682817243	4.69	39851952000
0	8686978032	4.691	1064082200000
0	8691145707	4.692	45929952000
0	8695302508	4.693	5207711256000
0	8699482536	4.694	1823245112000
0	8703695226	4.695	2262351160000
0	8707918345	4.696	1629028144000
0	8712138415	4.697	4402128208000
0	8716352234	4.698	2281778168000
0	8720589963	4.699	3710312320000
0	8724834942	4.7	272166352000
0	8729064208	4.701	41254288000
0	8733294190	4.702	268407408000
0	8737503400	4.703	36158248000
0	8741729944	4.704	28946392000
0	8745925921	4.705	1814397912000
0	8750126899	4.706	1616151992000
0	8754347385	4.707	1077214232000
0	8758573539	4.708	3604790504000
0	8762803750	4.709	2036621408000
0	8767012321	4.71	114422536000
0	8771241894	4.711	65535272000
0	8775476201	4.712	2057212248000
0	8779691672	4.713	45269072000
0	8783915768	4.714	1896909528000
0	8788144714	4.715	271047144000
0	8792352665	4.716	2610423424000
0	8796558594	4.717	41659568000
0	8800772340	4.718	59633584000
0	8804984965	4.719	2613485984000
0	8809210733	4.72	42201168000
0	8813424756	4.721	2263640640000
0	8817634849	4.722	2050708248000
0	8821820550	4.723	1813057600000
0	8826003819	4.724	1839296864000
0	8830209856	4.725	1817076216000
0	8834415652	4.726	1826704856000
0	8838600875	4.727	1054462784000
0	8842785912	4.728	5700599288000
0	8846974540	4.729	256456840000
0	8851203854	4.73	1903108768000
0	8855426212	4.731	5181896256000
0	8859667966	4.732	4610733024000
0	8863918117	4.733	42895688000
0	8868169839	4.734	5426725184000
0	8872426405	4.735	44624216000
0	8876657990	4.736	233706904000
0	8880891940	4.737	2626203496000
0	8885132886	4.738	31984912000
0	8889351898	4.739	6198155704000
0	8893566081	4.74	1828056744000
0	8897789198	4.741	1821308040000
0	8902004222	4.742	48868104000
0	8906212133	4.743	5979313712000
0	8910442536	4.744	351243208000
0	8914669887	4.745	817838232000
0	8918897492	4.746	2620119880000
0	8923146993	4.747	1612445160000
0	8927387896	4.748	1849244672000
0	8931645904	4.749	1845130088000
0	8935890355	4.75	1834953464000
0	8940108816	4.751	2668884368000
0	8944327045	4.752	4407880944000
0	8948525816	4.753	830412776000
0	8952738780	4.754	30647536000
0	8956943583	4.755	2602092976000
0	8961150293	4.756	5403868256000
0	8965367188	4.757	496616408000
0	8969558961	4.758	30156776000
0	8973765800	4.759	1818817576000
0	8977990640	4.76	2040048776000
0	8982205367	4.761	2617251744000
0	8986426955	4.762	832253640000
0	8990663758	4.763	1863064600000
0	8994890225	4.764	1840865664000
0	8999136764	4.765	1822840472000
0	9003375803	4.766	62435064000
0	9007622913	4.767	2052203032000
0	9011857613	4.768	2615094584000
0	9016074661	4.769	1850862784000
0	9020276161	4.77	49008328000
0	9024481395	4.771	812435352000
0	9028698449	4.772	63705944000
0	9032906952	4.773	4457589384000
0	9037117020	4.774	86703112000
0	9041296546	4.775	1827411320000
0	9045478091	4.776	854318552000
0	9049636325	4.777	3400840496000
0	9053795263	4.778	102352888000
0	9057948835	4.779	5398130640000
0	9062089341	4.78	817277936000
0	9066225940	4.781	108939408000
0	9070379953	4.782	1606160160000
0	9074542699	4.783	260079824000
0	9078701351	4.784	248530512000
0	9082883880	4.785	854117384000
0	9087071565	4.786	73807480000
0	9091269081	4.787	39732816000
0	9095483534	4.788	3830688784000
0	9099645059	4.789	859134592000
0	9103809298	4.79	38700336000
0	9107976165	4.791	1627323352000
0	9112143133	4.792	44171216000
0	9116310560	4.793	41728736000
0	9120475690	4.794	1635708136000
0	9124648509	4.795	5413065608000
0	9128819554	4.796	1836710312000
0	9132999643	4.797	2688100328000
0	9137186585	4.798	1637440992000
0	9141380022	4.799	1813013192000
0	9145561066	4.8	53028536000
0	9149728078	4.801	1812941904000
0	9153908729	4.802	36645632000
0	9158080819	4.803	822928304000
0	9162262479	4.804	51457712000
0	9166465722	4.805	1610755952000
0	9170670537	4.806	2627970800000
0	9174859776	4.807	846441752000
0	9179037306	4.808	1824152728000
0	9183226706	4.809	88087448000
0	9187442337	4.81	3840129048000
0	9191654597	4.811	835829016000
0	9195873400	4.812	2632702096000
0	9200105929	4.813	2080076792000
0	9204320766	4.814	5401557696000
0	9208549555	4.815	103931112000
0	9212782893	4.816	329003648000
0	9217005590	4.817	1842082792000
0	9221231884	4.818	1834817000000
0	9225471071	4.819	41289672000
0	9229708942	4.82	820652080000
0	9233968598	4.821	2714100776000
0	9238230335	4.822	33833104000
0	9242483174	4.823	51036128000
0	9246725046	4.824	256167656000
0	9250961298	4.825	1807864512000
0	9255196979	4.826	35761912000
0	9259442858	4.827	1609881336000
0	9263688958	4.828	2051083200000
0	9267908831	4.829	3440118816000
0	9272151463	4.83	1048579800000
0	9276378989	4.831	28163256000
0	9280602586	4.832	2629110792000
0	9284800818	4.833	44249048000
0	9289009787	4.834	817432048000
0	9293214238	4.835	40673672000
0	9297423057	4.836	60515632000
0	9301651706	4.837	4436519232000
0	9305881922	4.838	7970010832000
0	9310102644	4.839	5258183984000
0	9314320310	4.84	1828391560000
0	9318550544	4.841	81982840000
0	9322776290	4.842	39075008000
0	9326997766	4.843	1045882256000
0	9331230134	4.844	251332048000
0	9335470508	4.845	1904482600000
0	9339718522	4.846	1118458992000
0	9343992898	4.847	1841343368000
0	9348258189	4.848	1846363336000
0	9352524147	4.849	40246960000
0	9356791022	4.85	1837204440000
0	9361052882	4.851	2618744336000
0	9365325304	4.852	3618605744000
0	9369608576	4.853	97651016000
0	9373870350	4.854	45689608000
0	9378143714	4.855	3605042384000
0	9382430068	4.856	826935992000
0	9386740342	4.857	1848005696000
0	9391048300	4.858	1855828208000
0	9395356131	4.859	826102448000
0	9399653355	4.86	46586248000
0	9403955979	4.861	44201880000
0	9408263358	4.862	3601586416000
0	9412601412	4.863	3609364184000
0	9416926184	4.864	1818452880000
0	9421245399	4.865	4411299336000
0	9425569340	4.866	58129696000
0	9429899344	4.867	3848218792000
0	9434235665	4.868	52303976000
0	9438559911	4.869	825281768000
0	9442871958	4.87	3632109624000
0	9447209541	4.871	150182216000
0	9451534302	4.872	31994608000
0	9455869676	4.873	1838589960000
0	9460213522	4.874	1903171216000
0	9464577482	4.875	70185624000
0	9468941679	4.876	5193323560000
0	9473309603	4.877	1826027224000
0	9477646592	4.878	48081632000
0	9481981817	4.879	2264509872000
0	9486315333	4.88	1821308416000
0	9490645384	4.881	1111659072000
0	9494960059	4.882	3831861048000
0	9499244278	4.883	281818424000
0	9503549386	4.884	1053538024000
0	9507851223	4.885	2614992224000
0	9512141914	4.886	5182256432000
0	9516433641	4.887	3455055352000
0	9520751616	4.888	43016152000
0	9525087187	4.889	1882069376000
0	9529435624	4.89	1825722320000
0	9533770537	4.891	2832538360000
0	9538114592	4.892	260142816000
0	9542467795	4.893	1833018936000
0	9546819549	4.894	2634875712000
0	9551171781	4.895	1822270848000
0	9555526684	4.896	1825869624000
0	9559890480	4.897	1303102288000
0	9564249140	4.898	1642581432000
0	9568607472	4.899	1898377856000
0	9572950311	4.9	1823499640000
0	9577273951	4.901	1884989104000
0	9581606977	4.902	43560144000
0	9585920423	4.903	1621300696000
0	9590233697	4.904	3827413064000
0	9594535731	4.905	48567560000
0	9598801247	4.906	43419704000
0	9603085187	4.907	2677523944000
0	9607367553	4.908	1881833608000
0	9611656293	4.909	2622581336000
0	9615933783	4.91	2100286752000
0	9620223110	4.911	1838640776000
0	9624509543	4.912	1828843616000
0	9628783707	4.913	3611423664000
0	9633014924	4.914	5593838112000
0	9637260739	4.915	3839735784000
0	9641509230	4.916	286408776000
0	9645745744	4.917	247356464000
0	9649991903	4.918	3390916128000
0	9654244842	4.919	1828972576000
0	9658488731	4.92	1109959264000
0	9662701152	4.921	255657056000
0	9666925745	4.922	6215432624000
0	9671169410	4.923	1841412944000
0	9675433166	4.924	1836149368000
0	9679695041	4.925	49097592000
0	9683966910	4.926	45216248000
0	9688215643	4.927	34147464000
0	9692473750	4.928	4407707496000
0	9696707014	4.929	1856958712000
0	9700938489	4.93	2833739128000
0	9705197751	4.931	32865112000
0	9709484498	4.932	1898999848000
0	9713742759	4.933	2601730496000
0	9717989246	4.934	269068832000
0	9722234050	4.935	3888387080000
0	9726490324	4.936	829412168000
0	9730707307	4.937	1857397776000
0	9734933400	4.938	7184938064000
0	9739162044	4.939	831604280000
0	9743393249	4.94	63888672000
0	9747630963	4.941	270514688000
0	9751912498	4.942	5410307864000
0	9756179014	4.943	831866432000
0	9760417356	4.944	2647706712000
0	9764671738	4.945	264010328000
0	9768912303	4.946	1842348200000
0	9773134122	4.947	36491632000
0	9777367706	4.948	1271052424000
0	9781605186	4.949	35848584000
0	9785871530	4.95	959312496000
0	9790137442	4.951	91457016000
0	9794417000	4.952	35290304000
0	9798667619	4.953	256109448000
0	9802938737	4.954	1822438984000
0	9807207892	4.955	4409173888000
0	9811461047	4.956	1831313440000
0	9815723929	4.957	3401940120000
0	9819981551	4.958	2629440144000
0	9824235744	4.959	110833424000
0	9828489189	4.96	4409684872000
0	9832744820	4.961	3302466336000
0	9837017298	4.962	330086216000
0	9841294126	4.963	3628156472000
0	9845566520	4.964	31406824000
0	9849818569	4.965	884575040000
0	9854067430	4.966	32534528000
0	9858308703	4.967	1834786736000
0	9862554577	4.968	306569568000
0	9866823852	4.969	334051400000
0	9871072143	4.97	3609169008000
0	9875314154	4.971	3608003736000
0	9879555018	4.972	6973899744000
0	9883813651	4.973	3835320560000
0	9888052033	4.974	4609200400000
0	9892296052	4.975	29935720000
0	9896542462	4.976	1887475760000
0	9900782080	4.977	3618216296000
0	9905041991	4.978	252555856000
0	9909292215	4.979	1838269048000
0	9913562443	4.98	3612728504000
0	9917812986	4.981	78195336000
0	9922081786	4.982	263348584000
0	9926339379	4.983	48494568000
0	9930599188	4.984	3102594560000
0	9934870601	4.985	48231144000
0	9939171657	4.986	2628644072000
0	9943462661	4.987	5183177792000
0	9947727568	4.988	4627317728000
0	9951984548	4.989	53015688000
0	9956241468	4.99	1831995064000
0	9960487471	4.991	1090643096000
0	9964739467	4.992	847892648000
0	9968998133	4.993	2635635392000
0	9973252969	4.994	2040585808000
0	9977529435	4.995	52680552000
0	9981797627	4.996	1859967448000
0	9986073608	4.997	39079512000
0	9990366376	4.998	1840037480000
0	9994666667	4.999	2630049544000
0	9998971881	5	32075000000
0	10003263455	5.001	1823780664000
0	10007539314	5.002	2829920768000
0	10011825705	5.003	262588936000
0	10016109462	5.004	2636491424000
0	10020400100	5.005	259798912000
0	10024661368	5.006	826027384000
0	10028918151	5.007	5638308200000
0	10033189555	5.008	38696632000
0	10037456542	5.009	2116656088000
0	10041708343	5.01	39024240000
0	10045965390	5.011	1830573552000
0	10050243086	5.012	153045336000
0	10054523145	5.013	1827635576000
0	10058791503	5.014	3636770056000
0	10063086248	5.015	836808624000
0	10067386975	5.016	38505392000
0	10071676889	5.017	1823770728000
0	10075927519	5.018	1818995824000
0	10080168206	5.019	1829161008000
0	10084398690	5.02	49036784000
0	10088648900	5.021	74347680000
0	10092901383	5.022	1846031856000
0	10097173937	5.023	1609206056000
0	10101443927	5.024	3613568128000
0	10105724613	5.025	1844187072000
0	10110021946	5.026	1835315144000
0	10114326492	5.027	261306736000
0	10118609136	5.028	1901584392000
0	10122908718	5.029	816770040000
0	10127205875	5.03	105017080000
0	10131472291	5.031	284229744000
0	10135731334	5.032	2825182896000
0	10139977931	5.033	271428840000
0	10144250199	5.034	3394943856000
0	10148519687	5.035	90338488000
0	10152810549	5.036	1868623184000
0	10157106850	5.037	41608168000
0	10161382887	5.038	461568296000
0	10165645860	5.039	31190280000
0	10169903587	5.04	1819348016000
0	10174160462	5.041	830132416000
0	10178406563	5.042	493813720000
0	10182649786	5.043	1825382648000
0	10186903968	5.044	2616056440000
0	10191132386	5.045	1819078360000
0	10195351436	5.046	3414646696000
0	10199562578	5.047	3594803576000
0	10203781560	5.048	2678587856000
0	10208000101	5.049	2107126056000
0	10212229481	5.05	43092600000
0	10216455762	5.051	1835902352000
0	10220667697	5.052	2058207080000
0	10224863099	5.053	6252771280000
0	10229068346	5.054	464327528000
0	10233271095	5.055	31680008000
0	10237458471	5.056	59539648000
0	10241669415	5.057	1831095200000
0	10245877826	5.058	1887087424000
0	10250076911	5.059	3608552000000
0	10254269441	5.06	3609310120000
0	10258445353	5.061	37765216000
0	10262602131	5.062	1813092120000
0	10266749432	5.063	26144816000
0	10270900435	5.064	1834656856000
0	10275065718	5.065	1845001928000
0	10279209829	5.066	1056275184000
0	10283362257	5.067	1843892704000
0	10287512303	5.068	1856827048000
0	10291703237	5.069	1929179568000
0	10295903030	5.07	1819980112000
0	10300077837	5.071	2617796536000
0	10304248480	5.072	1827525752000
0	10308459189	5.073	1628731496000
0	10312626822	5.074	2057415984000
0	10316797447	5.075	44143152000
0	10320959518	5.076	2826313784000
0	10325106570	5.077	71278576000
0	10329245069	5.078	2053327448000
0	10333388469	5.079	2040490224000
0	10337543950	5.08	1819760096000
0	10341690658	5.081	44142352000
0	10345847260	5.082	56797304000
0	10349995821	5.083	57744776000
0	10354144102	5.084	45193736000
0	10358316836	5.085	914924016000
0	10362474753	5.086	3426963472000
0	10366626823	5.087	50571712000
0	10370769446	5.088	51225080000
0	10374912514	5.089	44723392000
0	10379041450	5.09	2632677144000
0	10383198300	5.091	80813456000
0	10387358664	5.092	3626250688000
0	10391533204	5.093	1844401568000
0	10395690475	5.094	297792464000
0	10399843569	5.095	7961947592000
0	10403996168	5.096	4399673424000
0	10408162171	5.097	302659248000
0	10412337567	5.098	1829662192000
0	10416518197	5.099	1633044488000
0	10420680260	5.1	36332528000
0	10424846555	5.101	59181504000
0	10429035661	5.102	1819146480000
0	10433224890	5.103	53120920000
0	10437390608	5.104	819367544000
0	10441558878	5.105	2041840008000
0	10445737402	5.106	56853824000
0	10449906982	5.107	1844893424000
0	10454087983	5.108	833734688000
0	10458266818	5.109	261960224000
0	10462452509	5.11	3651146560000
0	10466650718	5.111	50083088000
0	10470817664	5.112	482740040000
0	10474976769	5.113	1838140704000
0	10479152726	5.114	56854400000
0	10483334638	5.115	30793128000
0	10487498305	5.116	51568672000
0	10491682638	5.117	103735656000
0	10495837755	5.118	26080016000
0	10499987874	5.119	2604649960000
0	10504135963	5.12	37805952000
0	10508270688	5.121	2028577216000
0	10512438107	5.122	3625429688000
0	10516579676	5.123	1608991568000
0	10520727190	5.124	4391693664000
0	10524866215	5.125	49764864000
0	10529001995	5.126	3406583936000
0	10533131279	5.127	3617614296000
0	10537273230	5.128	825922864000
0	10541417436	5.129	1821114576000
0	10545580202	5.13	2827975584000
0	10549746384	5.131	40025960000
0	10553909493	5.132	72512336000
0	10558091644	5.133	3405963440000
0	10562259733	5.134	812558448000
0	10566409651	5.135	1099022496000
0	10570566093	5.136	846182600000
0	10574725534	5.137	3815906552000
0	10578876006	5.138	43523960000
0	10583042071	5.139	2618312760000
0	10587207556	5.14	3412897104000
0	10591370795	5.141	1026256520000
0	10595548877	5.142	62243136000
0	10599738395	5.143	1844597680000
0	10603929551	5.144	45831136000
0	10608109511	5.145	4402480840000
0	10612302923	5.146	54242480000
0	10616498314	5.147	1035878968000
0	10620680048	5.148	1830972168000
0	10624847300	5.149	33208120000
0	10629029341	5.15	3650119744000
0	10633207655	5.151	1834921944000
0	10637394453	5.152	23580736000
0	10641578620	5.153	4400545688000
0	10645777787	5.154	4423078096000
0	10649987400	5.155	3608156568000
0	10654203177	5.156	45764488000
0	10658423073	5.157	102998248000
0	10662606273	5.158	5218879096000
0	10666800997	5.159	1827620544000
0	10670993526	5.16	3636611072000
0	10675175925	5.161	846891136000
0	10679361653	5.162	1825354000000
0	10683555057	5.163	3641442848000
0	10687762908	5.164	821907264000
0	10691980447	5.165	819914120000
0	10696214699	5.166	3400758856000
0	10700442205	5.167	4406963592000
0	10704645989	5.168	5225928920000
0	10708872048	5.169	834724168000
0	10713102492	5.17	43692440000
0	10717325207	5.171	35796104000
0	10721559662	5.172	2610082392000
0	10725829324	5.173	1820933656000
0	10730065719	5.174	242645240000
0	10734277354	5.175	48325608000
0	10738495373	5.176	2041431712000
0	10742706175	5.177	1041450368000
0	10746903910	5.178	41361184000
0	10751140316	5.179	2039226568000
0	10755376008	5.18	326121992000
0	10759600841	5.181	49897120000
0	10763825297	5.182	49706664000
0	10768062752	5.183	881633400000
0	10772314669	5.184	1335937272000
0	10776550979	5.185	44797064000
0	10780767457	5.186	815207656000
0	10784989832	5.187	868926904000
0	10789228262	5.188	825530456000
0	10793478883	5.189	3612220248000
0	10797729479	5.19	33454112000
0	10801962517	5.191	1835933552000
0	10806180277	5.192	3596778520000
0	10810382380	5.193	2073172416000
0	10814593063	5.194	37242584000
0	10818801142	5.195	1929416464000
0	10823016794	5.196	46006928000
0	10827246450	5.197	279924040000
0	10831462394	5.198	1828968416000
0	10835699665	5.199	3708236464000
0	10839950003	5.2	4405383160000
0	10844220265	5.201	274017040000
0	10848504999	5.202	1844958576000
0	10852803914	5.203	849517008000
0	10857080683	5.204	246765392000
0	10861356840	5.205	34149592000
0	10865615817	5.206	55148456000
0	10869845023	5.207	44724256000
0	10874079194	5.208	1960044224000
0	10878292310	5.209	832026064000
0	10882491841	5.21	32043944000
0	10886705672	5.211	94830176000
0	10890939931	5.212	79722496000
0	10895181374	5.213	270429648000
0	10899424646	5.214	1816476792000
0	10903639364	5.215	4601997832000
0	10907862363	5.216	3616002696000
0	10912065436	5.217	1880611024000
0	10916247412	5.218	5409793192000
0	10920431202	5.219	1048658472000
0	10924607585	5.22	33883536000
0	10928767222	5.221	1604557016000
0	10932923211	5.222	48772416000
0	10937079539	5.223	2628458048000
0	10941246389	5.224	2836077880000
0	10945402904	5.225	56732136000
0	10949580863	5.226	1836672464000
0	10953800880	5.227	1839495520000
0	10958035606	5.228	1833055168000
0	10962263128	5.229	3623599176000
0	10966493118	5.23	3620976824000
0	10970738326	5.231	5408066856000
0	10974965849	5.232	1839927960000
0	10979203221	5.233	5833931624000
0	10983450759	5.234	6178010992000
0	10987667696	5.235	1822137152000
0	10991908743	5.236	1846018792000
0	10996148052	5.237	2843107168000
0	11000382919	5.238	826375120000
0	11004596092	5.239	1824176496000
0	11008827644	5.24	1823074216000
0	11013061720	5.241	3663894504000
0	11017297868	5.242	30328400000
0	11021528218	5.243	23176040000
0	11025770266	5.244	57547608000
0	11030021338	5.245	43087552000
0	11034294545	5.246	2045331904000
0	11038521881	5.247	2605288600000
0	11042753665	5.248	1834890584000
0	11046995219	5.249	3624960280000
0	11051222721	5.25	2051876720000
0	11055444073	5.251	852050952000
0	11059681119	5.252	1898308232000
0	11063920732	5.253	2608986616000
0	11068139720	5.254	3628770112000
0	11072367665	5.255	1823882928000
0	11076602755	5.256	2617196112000
0	11080853640	5.257	3625950744000
0	11085103604	5.258	262039384000
0	11089363100	5.259	100700432000
0	11093613623	5.26	3623677296000
0	11097867848	5.261	54977344000
0	11102107495	5.262	1817672848000
0	11106349903	5.263	102745872000
0	11110592379	5.264	20642144000
0	11114859675	5.265	1809628272000
0	11119106226	5.266	2605011992000
0	11123351286	5.267	65855848000
0	11127603801	5.268	2648067024000
0	11131857186	5.269	1841109992000
0	11136100091	5.27	5399784048000
0	11140318117	5.271	848053424000
0	11144509872	5.272	1626989080000
0	11148709279	5.273	813723968000
0	11152927340	5.274	1841184120000
0	11157141031	5.275	1871751568000
0	11161354164	5.276	267051728000
0	11165577038	5.277	850761944000
0	11169795692	5.278	70233744000
0	11174026289	5.279	1279042136000
0	11178274789	5.28	2055019312000
0	11182514758	5.281	1830771296000
0	11186748841	5.282	1850119480000
0	11190996187	5.283	1877235408000
0	11195237374	5.284	819221352000
0	11199459536	5.285	1821848128000
0	11203718693	5.286	1817921128000
0	11207973757	5.287	2823769576000
0	11212212893	5.288	3663446920000
0	11216434356	5.289	829902512000
0	11220635513	5.29	1869111864000
0	11224833016	5.291	1813364144000
0	11229029196	5.292	2613386048000
0	11233237944	5.293	478369056000
0	11237426020	5.294	3613658728000
0	11241617059	5.295	1661519888000
0	11245772680	5.296	1613949208000
0	11249933599	5.297	6180527608000
0	11254094009	5.298	1626286000000
0	11258260646	5.299	1825734088000
0	11262414139	5.3	2641251080000
0	11266598957	5.301	50916664000
0	11270789841	5.302	1815729416000
0	11274963142	5.303	69787920000
0	11279147804	5.304	3618582184000
0	11283314334	5.305	2410487280000
0	11287496791	5.306	1051119272000
0	11291685045	5.307	1624671408000
0	11295874947	5.308	1865690840000
0	11300050334	5.309	1836795728000
0	11304216963	5.31	2614426848000
0	11308394973	5.311	246600400000
0	11312569028	5.312	8548174072000
0	11316751174	5.313	42202208000
0	11320939674	5.314	2046152424000
0	11325137460	5.315	853544368000
0	11329331686	5.316	2031528608000
0	11333527856	5.317	47839024000
0	11337717619	5.318	1820955472000
0	11341908543	5.319	42251168000
0	11346103697	5.32	1046817544000
0	11350325602	5.321	68278568000
0	11354529308	5.322	110867016000
0	11358709648	5.323	1822238072000
0	11362916956	5.324	3605004576000
0	11367141026	5.325	3614973736000
0	11371393532	5.326	1838867608000
0	11375637793	5.327	1822057992000
0	11379895794	5.328	266307984000
0	11384150848	5.329	1840740176000
0	11388394069	5.33	4377956816000
[...]
4	28590963876	9.417	260555296000
4	28595083512	9.418	2627128040000
4	28599216208	9.419	101651056000
4	28603348422	9.42	33578056000
4	28607475900	9.421	7178736456000
4	28611593591	9.422	46618816000
4	28615728821	9.423	908729192000
4	28619859961	9.424	119006320000
4	28623975002	9.425	2490107016000
4	28628083269	9.426	1827843264000
4	28632189234	9.427	1629853672000
4	28636297118	9.428	1632281888000
4	28640437702	9.429	3439847736000
4	28644601647	9.43	2690335928000
4	28648759132	9.431	826970888000
4	28652915204	9.432	1828924120000
4	28657081602	9.433	1320356816000
4	28661262940	9.434	82148504000
4	28665408341	9.435	1828492168000
4	28669560767	9.436	58590296000
4	28673698913	9.437	6268266664000
4	28677863265	9.438	51411648000
4	28682022694	9.439	1839730640000
4	28686197256	9.44	110874000000
4	28690349300	9.441	840709328000
4	28694515752	9.442	2274054096000
4	28698690439	9.443	60021304000
4	28702897604	9.444	1876231624000
4	28707067680	9.445	1876617064000
4	28711250621	9.446	1845712240000
4	28715412672	9.447	1045938520000
4	28719587016	9.448	5257129784000
4	28723769708	9.449	4626289200000
4	28727903474	9.45	5453473776000
4	28732042342	9.451	62159368000
4	28736191262	9.452	40144816000
4	28740360360	9.453	271071840000
4	28744522451	9.454	2356496840000
4	28748678652	9.455	2672008624000
4	28752836056	9.456	1827702504000
4	28756971619	9.457	1835028888000
4	28761101855	9.458	1889561896000
4	28765234434	9.459	40488800000
4	28769362004	9.46	49936504000
4	28773511961	9.461	1613557032000
4	28777667221	9.462	3618382104000
4	28781807533	9.463	2046996408000
4	28785961750	9.464	2632876992000
4	28790104279	9.465	339915504000
4	28794264857	9.466	1910549720000
4	28798428568	9.467	1277859200000
4	28802606417	9.468	478549312000
4	28806770860	9.469	1875979848000
4	28810955667	9.47	1659264720000
4	28815125066	9.471	63291568000
4	28819294474	9.472	2697749656000
4	28823445887	9.473	1826414048000
4	28827573982	9.474	841326032000
4	28831700372	9.475	2634207840000
4	28835828025	9.476	52139232000
4	28839963917	9.477	7200289744000
4	28844081141	9.478	3821806056000
4	28848171556	9.479	36122864000
4	28852268164	9.48	2616446712000
4	28856389970	9.481	3880843432000
4	28860531325	9.482	5406560952000
4	28864658459	9.483	41091128000
4	28868784110	9.484	111319280000
4	28872915005	9.485	2615856008000
4	28877016273	9.486	3602197088000
4	28881112729	9.487	1825120408000
4	28885172077	9.488	3844594400000
4	28889247953	9.489	1832496512000
4	28893321353	9.49	1037113624000
4	28897400727	9.491	1818288512000
4	28901483443	9.492	1824669232000
4	28905582090	9.493	57658608000
4	28909681276	9.494	36688952000
4	28913775384	9.495	26276912000
4	28917877972	9.496	51410384000
4	28921967977	9.497	1829059880000
4	28926055165	9.498	2044552672000
4	28930124746	9.499	1045285152000
4	28934208305	9.5	34679160000
4	28938290904	9.501	1821203960000
4	28942367663	9.502	37599088000
4	28946426620	9.503	1838682776000
4	28950488724	9.504	1835870096000
4	28954575240	9.505	253040104000
4	28958665169	9.506	838343048000
4	28962759976	9.507	3603618144000
4	28966849490	9.508	68160680000
4	28970938739	9.509	61297384000
4	28975043733	9.51	1848581688000
4	28979140540	9.511	1854598832000
4	28983245113	9.512	114460456000
4	28987342788	9.513	1815311192000
4	28991436263	9.514	1877802280000
4	28995551444	9.515	1824290832000
4	28999648784	9.516	266004520000
4	29003765564	9.517	1878427560000
4	29007875288	9.518	827789296000
4	29011969184	9.519	2632335224000
4	29016065600	9.52	34626120000
4	29020172267	9.521	2626164440000
4	29024280488	9.522	2413228048000
4	29028386891	9.523	3419825960000
4	29032509970	9.524	3402369152000
4	29036617261	9.525	39970992000
4	29040732269	9.526	42299528000
4	29044836256	9.527	2599704336000
4	29048984951	9.528	3705389456000
4	29053105556	9.529	1620577264000
4	29057229883	9.53	1820135408000
4	29061347701	9.531	1828007968000
4	29065469873	9.532	97841936000
4	29069584980	9.533	38784712000
4	29073703600	9.534	3613753088000
4	29077844024	9.535	2087570032000
4	29081991191	9.536	1836404368000
4	29086112133	9.537	5459135712000
4	29090228462	9.538	3614176248000
4	29094374704	9.539	3600612816000
4	29098515555	9.54	31623680000
4	29102643880	9.541	822589432000
4	29106793093	9.542	158313872000
4	29110923668	9.543	1616005192000
4	29115096385	9.544	3640797160000
4	29119247519	9.545	2606906712000
4	29123396380	9.546	1894415656000
4	29127587120	9.547	830280760000
4	29131787093	9.548	64275264000
4	29135989436	9.549	3607338792000
4	29140229948	9.55	1888397968000
4	29144478759	9.551	847990952000
4	29148721708	9.552	1839210224000
4	29152958884	9.553	29967808000
4	29157207745	9.554	4419069536000
4	29161426769	9.555	1838040624000
4	29165625825	9.556	1839005440000
4	29169841995	9.557	2606435008000
4	29174048205	9.558	3661402248000
4	29178271619	9.559	5399213104000
4	29182483583	9.56	1058855976000
4	29186696481	9.561	1618685656000
4	29190920109	9.562	1650765024000
4	29195165104	9.563	41172784000
4	29199422064	9.564	57940048000
4	29203680700	9.565	38124184000
4	29207938749	9.566	248109424000
4	29212227564	9.567	917932712000
4	29216497090	9.568	1839159664000
4	29220763681	9.569	40506288000
4	29225012425	9.57	2629672768000
4	29229279491	9.571	2598406408000
4	29233540974	9.572	1827154856000
4	29237810116	9.573	2629957336000
4	29242087828	9.574	28967280000
4	29246370249	9.575	4632761200000
4	29250648209	9.576	3812758456000
4	29254888905	9.577	284757968000
4	29259142647	9.578	3614040248000
4	29263410512	9.579	4070750768000
4	29267701955	9.58	838062336000
4	29271989843	9.581	853526152000
4	29276288386	9.582	5395407792000
4	29280562167	9.583	1805766216000
4	29284820641	9.584	71492584000
4	29289075859	9.585	51903720000
4	29293339372	9.586	1825979640000
4	29297618674	9.587	36705200000
4	29301918310	9.588	846296896000
4	29306201696	9.589	847972088000
4	29310463071	9.59	831681296000
4	29314731135	9.591	3616967152000
4	29318989870	9.592	2663349232000
4	29323264091	9.593	53160288000
4	29327520990	9.594	1831554504000
4	29331759796	9.595	1828867568000
4	29336005799	9.596	38584480000
4	29340239921	9.597	72971312000
4	29344489256	9.598	255969784000
4	29348740953	9.599	1818652008000
4	29352978076	9.6	2067572224000
4	29357220607	9.601	5415312904000
4	29361482421	9.602	1894194008000
4	29365740993	9.603	884765400000
4	29370016464	9.604	1846949984000
4	29374293104	9.605	4384987304000
4	29378575544	9.606	3820351792000
4	29382868337	9.607	4416014344000
4	29387165739	9.608	2625472760000
4	29391484363	9.609	46800576000
4	29395801211	9.61	2632001080000
4	29400112267	9.611	2644168296000
4	29404431583	9.612	40880688000
4	29408732171	9.613	4397518256000
4	29413032585	9.614	26694128000
4	29417331720	9.615	1839450912000
4	29421635112	9.616	1858417480000
4	29425928383	9.617	3840732312000
4	29430233196	9.618	52614816000
4	29434530181	9.619	25844552000
4	29438810473	9.62	1833305040000
4	29443090800	9.621	1817296016000
4	29447370329	9.622	31373896000
4	29451652025	9.623	1850223568000
4	29455947589	9.624	3626017312000
4	29460263744	9.625	1858856488000
4	29464584875	9.626	3620179568000
4	29468900266	9.627	275368472000
4	29473206892	9.628	478112480000
4	29477503131	9.629	60164696000
4	29481818018	9.63	1817955872000
4	29486120715	9.631	854065560000
4	29490424964	9.632	29991424000
4	29494712969	9.633	3413621712000
4	29499019455	9.634	264858728000
4	29503308342	9.635	2828079424000
4	29507624408	9.636	820403048000
4	29511927825	9.637	285434976000
4	29516230984	9.638	2057684104000
4	29520535371	9.639	1863879928000
4	29524837521	9.64	65215232000
4	29529144215	9.641	826711656000
4	29533455873	9.642	1833757416000
4	29537764200	9.643	1641831096000
4	29542080935	9.644	2626079776000
4	29546407286	9.645	2679349984000
4	29550708767	9.646	3887745376000
4	29555004802	9.647	2628393504000
4	29559293754	9.648	1893288920000
4	29563597549	9.649	33385424000
4	29567898776	9.65	823756920000
4	29572183221	9.651	39892480000
4	29576457073	9.652	1826400312000
4	29580719027	9.653	2611293520000
4	29584996330	9.654	1851785848000
4	29589266253	9.655	1058057496000
4	29593534217	9.656	46671368000
4	29597799693	9.657	33715640000
4	29602076360	9.658	123995136000
4	29606356522	9.659	847485088000
4	29610677473	9.66	1805875368000
4	29614997510	9.661	1663754152000
4	29619292246	9.662	1037029064000
4	29623570483	9.663	75533288000
4	29627882295	9.664	256625336000
4	29632186343	9.665	4631480960000
4	29636497193	9.666	5483600624000
4	29640820493	9.667	4623919048000
4	29645115330	9.668	2051393328000
4	29649388408	9.669	1820807472000
4	29653670873	9.67	32680616000
4	29657940776	9.671	36684880000
4	29662177151	9.672	38427448000
4	29666441558	9.673	269587208000
4	29670723581	9.674	4390348040000
4	29674999682	9.675	2620653896000
4	29679277759	9.676	2054475416000
4	29683533951	9.677	1648821960000
4	29687779652	9.678	45600144000
4	29692035513	9.679	46028888000
4	29696321311	9.68	4401832264000
4	29700633264	9.681	823037744000
4	29704938691	9.682	3663725944000
4	29709262856	9.683	2485968000000
4	29713568426	9.684	1831311456000
4	29717877147	9.685	2627584000000
4	29722198470	9.686	45760912000
4	29726522264	9.687	5614784656000
4	29730848499	9.688	46253288000
4	29735156235	9.689	1820434256000
4	29739468792	9.69	1273074240000
4	29743792495	9.691	1829797592000
4	29748110395	9.692	8755592256000
4	29752450971	9.693	51514752000
4	29756745161	9.694	1825427856000
4	29761025504	9.695	1817738272000
4	29765319117	9.696	55916624000
4	29769631586	9.697	1858332104000
4	29773937987	9.698	872051120000
4	29778223732	9.699	273526224000
4	29782512474	9.7	1821440960000
4	29786806018	9.701	2123781272000
4	29791100777	9.702	283609832000
4	29795394145	9.703	834514352000
4	29799700327	9.704	2156460920000
4	29803996949	9.705	40681736000
4	29808308988	9.706	55922008000
4	29812606704	9.707	101960904000
4	29816902540	9.708	1806258608000
4	29821195431	9.709	830632640000
4	29825486270	9.71	254165880000
4	29829766807	9.711	5396752352000
4	29834034804	9.712	1828853192000
4	29838306036	9.713	2616330432000
4	29842593818	9.714	2621754048000
4	29846875438	9.715	2038443656000
4	29851158489	9.716	256280912000
4	29855460303	9.717	302984840000
4	29859723563	9.718	45748216000
4	29863988924	9.719	54213696000
4	29868249778	9.72	1842498448000
4	29872546602	9.721	3812691784000
4	29876850781	9.722	2099293080000
4	29881136523	9.723	105737744000
4	29885434521	9.724	2605299568000
4	29889705980	9.725	860065208000
4	29893986522	9.726	61486400000
4	29898278501	9.727	3422766856000
4	29902564857	9.728	69912120000
4	29906833700	9.729	4401746872000
4	29911102658	9.73	3683806936000
4	29915375517	9.731	248629512000
4	29919630990	9.732	31385712000
4	29923892287	9.733	19821440000
4	29928157141	9.734	1833930488000
4	29932425156	9.735	1899416704000
4	29936692429	9.736	3817819880000
4	29940944604	9.737	870267184000
4	29945199591	9.738	2606547200000
4	29949477725	9.739	3916256864000
4	29953765210	9.74	323548808000
4	29958030711	9.741	1052394496000
4	29962262789	9.742	1846652976000
4	29966531938	9.743	846924456000
4	29970778346	9.744	2622834160000
4	29975049713	9.745	2627881704000
4	29979320874	9.746	1819221464000
4	29983589695	9.747	249953952000
4	29987886081	9.748	1062615104000
4	29992170553	9.749	2085696400000
4	29996453182	9.75	107664152000
4	30000737557	9.751	1833499504000
4	30005017427	9.752	3615931136000
4	30009286335	9.753	1821345592000
4	30013552802	9.754	1817733392000
4	30017835482	9.755	847586624000
4	30022120243	9.756	130802240000
4	30026381264	9.757	1828105104000
4	30030640684	9.758	62788744000
4	30034907581	9.759	1836055376000
4	30039197275	9.76	3619806328000
4	30043483229	9.761	36643368000
4	30047771309	9.762	3420105784000
4	30052049461	9.763	1830533552000
4	30056316006	9.764	105897720000
4	30060580643	9.765	311610152000
4	30064843608	9.766	3625368376000
4	30069116268	9.767	41611544000
4	30073387514	9.768	1841213096000
4	30077658942	9.769	2626608248000
4	30081961614	9.77	825672784000
4	30086264423	9.771	101799520000
4	30090552469	9.772	49536048000
4	30094843265	9.773	2607941112000
4	30099123439	9.774	3404838088000
4	30103418291	9.775	3617616272000
4	30107705682	9.776	830039176000
4	30111991326	9.777	2056845480000
4	30116271045	9.778	1821709696000
4	30120542469	9.779	1859172856000
4	30124809345	9.78	2610720920000
4	30129063483	9.781	49999560000
4	30133324001	9.782	82068424000
4	30137558877	9.783	37061896000
4	30141786357	9.784	2068370032000
4	30146035530	9.785	4397105936000
4	30150296038	9.786	2827897896000
4	30154560341	9.787	1828584592000
4	30158835735	9.788	48202416000
4	30163086147	9.789	79106880000
4	30167326898	9.79	2036295008000
4	30171514152	9.791	3662024360000
4	30175703174	9.792	1810095392000
4	30179882399	9.793	125714168000
4	30184072070	9.794	3628299256000
4	30188259129	9.795	2632871504000
4	30192427599	9.796	1824708816000
4	30196588896	9.797	38631328000
4	30200753239	9.798	3615442272000
4	30204893112	9.799	27404232000
4	30209020268	9.8	260174784000
4	30213128178	9.801	813423968000
4	30217252462	9.802	1836838896000
4	30221371803	9.803	2840066968000
4	30225510488	9.804	835752752000
4	30229649010	9.805	1838393192000
4	30233799301	9.806	50600520000
4	30237971657	9.807	2625453696000
4	30242123012	9.808	863541656000
4	30246298890	9.809	3663403296000
4	30250456689	9.81	5476922344000
4	30254616113	9.811	1042760064000
4	30258767891	9.812	43585824000
4	30262928717	9.813	34827576000
4	30267082527	9.814	1826328456000
4	30271232157	9.815	3911339400000
4	30275398733	9.816	61944768000
4	30279549329	9.817	3608793752000
4	30283686118	9.818	6179638616000
4	30287836824	9.819	1879637848000
4	30292001096	9.82	2857168272000
4	30296186414	9.821	3621454888000
4	30300351366	9.822	109178992000
4	30304527991	9.823	829988016000
4	30308712376	9.824	839814560000
4	30312898976	9.825	1885485360000
4	30317077110	9.826	819318584000
4	30321250074	9.827	2619951688000
4	30325422804	9.828	38442368000
4	30329601396	9.829	6410392200000
4	30333772267	9.83	1819612904000
4	30337941632	9.831	4386732368000
4	30342115209	9.832	281088704000
4	30346280613	9.833	1825678920000
4	30350458208	9.834	3624595560000
4	30354649780	9.835	3830825456000
4	30358833952	9.836	3514158544000
4	30363035755	9.837	871380664000
4	30367224909	9.838	260470232000
4	30371391289	9.839	27548104000
4	30375576192	9.84	266489288000
4	30379772286	9.841	259595408000
4	30383984709	9.842	858294680000
4	30388162087	9.843	1825476104000
4	30392343036	9.844	1876438600000
4	30396508109	9.845	839728600000
4	30400676517	9.846	828189048000
4	30404858428	9.847	295475496000
4	30409036306	9.848	2611877744000
4	30413218139	9.849	247726784000
4	30417417857	9.85	3621538448000
4	30421614235	9.851	324206824000
4	30425824656	9.852	298716672000
4	30430049024	9.853	40578304000
4	30434280679	9.854	840987792000
4	30438500497	9.855	1835834928000
4	30442706400	9.856	48044080000
4	30446908240	9.857	1068658992000
4	30451116445	9.858	59052328000
4	30455321031	9.859	1833448800000
4	30459532456	9.86	3675403072000
4	30463749030	9.861	69045584000
4	30467950702	9.862	1877957904000
4	30472127874	9.863	35717272000
4	30476312260	9.864	2051167768000
4	30480533148	9.865	66295376000
4	30484725490	9.866	2624257384000
4	30488884882	9.867	33062376000
4	30493065384	9.868	1820656440000
4	30497245781	9.869	91922904000
4	30501439111	9.87	2061485040000
4	30505660124	9.871	41103688000
4	30509876316	9.872	55110936000
4	30514091562	9.873	33349056000
4	30518280419	9.874	1872712176000
4	30522469651	9.875	837335736000
4	30526643666	9.876	1878471184000
4	30530823591	9.877	2607766200000
4	30535005930	9.878	22559528000
4	30539168642	9.879	4046643704000
4	30543338104	9.88	49907608000
4	30547506502	9.881	3669971280000
4	30551667100	9.882	2036460800000
4	30555824363	9.883	2284955496000
4	30559982911	9.884	38010144000
4	30564145023	9.885	3633445896000
4	30568329367	9.886	3620607808000
4	30572540494	9.887	4395711672000
4	30576740754	9.888	43980480000
4	30580946705	9.889	859997832000
4	30585135560	9.89	30408064000
4	30589319475	9.891	2058617464000
4	30593492892	9.892	24975440000
4	30597666476	9.893	270273240000
4	30601837704	9.894	1816013936000
4	30606025013	9.895	52881240000
4	30610248833	9.896	2416665872000
4	30614436155	9.897	825503256000
4	30618605672	9.898	7992048216000
4	30622801963	9.899	1833768232000
4	30626994509	9.9	3617765136000
4	30631204548	9.901	270250160000
4	30635399607	9.902	43332736000
4	30639568166	9.903	860292392000
4	30643756800	9.904	41488496000
4	30647952187	9.905	831523416000
4	30652124407	9.906	5193889776000
4	30656306567	9.907	72096640000
4	30660488582	9.908	839850528000
4	30664663711	9.909	28445664000
4	30668871386	9.91	44249128000
4	30673074162	9.911	59888048000
4	30677297524	9.912	1264250760000
4	30681513709	9.913	2029275584000
4	30685739721	9.914	1076334040000
4	30689949621	9.915	43281000000
4	30694206095	9.916	277810576000
4	30698455866	9.917	1855511896000
4	30702697367	9.918	36487488000
4	30706930331	9.919	44465384000
4	30711171296	9.92	4400044032000
4	30715445568	9.921	3637875232000
4	30719718265	9.922	52795528000
4	30723988431	9.923	272461008000
4	30728264674	9.924	7398531936000
4	30732543480	9.925	48790440000
4	30736817737	9.926	3593321656000
4	30741082695	9.927	1832768536000
4	30745355369	9.928	839277560000
4	30749658462	9.929	2678606928000
4	30753936750	9.93	46417920000
4	30758236198	9.931	2040434848000
4	30762540202	9.932	43067696000
4	30766815098	9.933	359703520000
4	30771094288	9.934	1835763896000
4	30775359120	9.935	36835552000
4	30779607950	9.936	54531112000
4	30783844571	9.937	41018424000
4	30788062157	9.938	833572128000
4	30792299785	9.939	5193935808000
4	30796528850	9.94	86644704000
4	30800740708	9.941	1829738896000
4	30804968785	9.942	1063615976000
4	30809193759	9.943	242484912000
4	30813416550	9.944	4395832016000
4	30817623637	9.945	175957344000
4	30821834866	9.946	2075220032000
4	30826065494	9.947	108997584000
4	30830276296	9.948	2625405568000
4	30834485246	9.949	2902253984000
4	30838677616	9.95	58100240000
4	30842900555	9.951	3472113360000
4	30847111291	9.952	1085280864000
4	30851319555	9.953	4393816152000
4	30855533653	9.954	1838526688000
4	30859736146	9.955	1810570696000
4	30863938190	9.956	2602618992000
4	30868121432	9.957	2610712928000
4	30872287437	9.958	47573536000
4	30876434920	9.959	49327504000
4	30880586636	9.96	1834007968000
4	30884745874	9.961	1625989520000
4	30888910563	9.962	1831057456000
4	30893071902	9.963	103870696000
4	30897245801	9.964	3412560048000
4	30901391272	9.965	3599601984000
4	30905534994	9.966	44879064000
4	30909675258	9.967	67313040000
4	30913829364	9.968	266875056000
4	30917965770	9.969	65823216000
4	30922083188	9.97	44884384000
4	30926228603	9.971	3607319592000
4	30930354139	9.972	827867200000
4	30934497085	9.973	114986376000
4	30938648223	9.974	818979520000
4	30942807760	9.975	859075120000
4	30946936870	9.976	1826961288000
4	30951052772	9.977	3814002784000
4	30955179503	9.978	1836727152000
4	30959300856	9.979	3608820784000
4	30963435847	9.98	3422646776000
4	30967570922	9.981	42030664000
4	30971706435	9.982	818947384000
4	30975841642	9.983	1832646128000
4	30979965833	9.984	45251720000
4	30984097625	9.985	814276592000
4	30988214851	9.986	871547768000
4	30992324364	9.987	267890032000
4	30996446553	9.988	1839266664000
4	31000562789	9.989	826088416000
4	31004704080	9.99	498213104000
4	31008830102	9.991	2676114560000
4	31012976593	9.992	3672016376000
4	31017122368	9.993	27686504000
4	31021277483	9.994	1825189400000
4	31025424354	9.995	116758640000
4	31029589257	9.996	28468064000
4	31033753738	9.997	320306584000
4	31037921559	9.998	4635157304000
4	31042104099	9.999	46982384000
4	31046305038	10	62258248000

