version 2
run General-0-20221125-16:43:46-3544
attr configname General
attr datetime 20221125-16:43:46
attr experiment General
attr inifile omnetpp.ini
attr iterationvars ""
attr iterationvarsf ""
attr measurement ""
attr network Network
attr processid 3544
attr repetition 0
attr replication #0
attr resultdir results
attr runnumber 0
attr seedset 0
param Network.NumOfToRs 5
param Network.NumOfAggregation 3
param Network.rack[*].number_of_hosts 50000
param Network.linedelay 0.2
param Network.tor[*].CacheSize 1000
param Network.agg[*].CacheSize 1000
param Network.controllerswitch.CacheSize 1000
param Network.tor[*].threshold 2
param Network.agg[*].threshold 2
param Network.controllerswitch.threshold 1
param Network.tor[*].Type 1001
param Network.agg[*].Type 1002
param Network.controllerswitch.Type 1003
param Network.rack[*].host[*].flow_appearance "\"\""
param Network.rack[*].host[*].flow_size "\"\""
param Network.policy_size "\"\""
param Network.cache_size "\"\""
param Network.propagation_time "\"\""
param Network.processing_time_on_data_packet_in_sw "\"\""
param Network.processing_time_on_data_packet_in_controller "\"\""
param Network.insertion_delay "\"\""
param Network.eviction_delay "\"\""
param Network.elephant_table_size "\"\""
param Network.flush_elephant_time "\"\""
param Network.check_for_elephant_time "\"\""
param Network.elephant_sample_rx "\"\""
param Network.bandwidth_elephant_threshold "\"\""
param Network.already_requested_threshold "\"\""
param Network.push_threshold_in_aggregation "\"\""
param Network.push_threshold_in_controller_switch "\"\""
param Network.cache_percentage "\"\""
param Network.eviction_sample_size "\"\""
param Network.inter_arrival_time_between_packets "\"\""
param Network.inter_arrival_time_between_flowlets "\"\""
param Network.inter_arrival_time_between_flows "\"\""
param Network.large_flow "\"\""
param Network.last_flow_appearance "\"0\""
param Network.rack[*].last_flow_appearance "\"0\""

vector 0 Network.rack[0].hub flowlet_count ETV
vector 1 Network.rack[1].hub flowlet_count ETV
vector 2 Network.rack[2].hub flowlet_count ETV
vector 3 Network.rack[3].hub flowlet_count ETV
vector 4 Network.rack[4].hub flowlet_count ETV
0	1510157640	3.001	57378120000
0	1513876199	3.002	5676406768000
0	1517551664	3.003	2628235720000
0	1521226598	3.004	3650935608000
0	1524892420	3.005	903027712000
0	1528542778	3.006	260979904000
0	1532181301	3.007	4403168016000
0	1535832876	3.008	51624560000
0	1539456087	3.009	33382272000
0	1543043235	3.01	23012632000
0	1546628569	3.011	73733472000
0	1550194494	3.012	1816692960000
0	1553810040	3.013	1925608888000
0	1557400279	3.014	2614039136000
0	1561002652	3.015	1032859960000
0	1564617907	3.016	3390389032000
0	1568220815	3.017	287183368000
0	1571804440	3.018	1827899400000
0	1575391046	3.019	5188790640000
0	1578973997	3.02	4395043528000
0	1582567904	3.021	832201400000
0	1586139784	3.022	4396183096000
0	1589703744	3.023	43196640000
0	1593272329	3.024	825876032000
0	1596806004	3.025	2609825960000
0	1600328679	3.026	2619310816000
0	1603858067	3.027	3612170504000
0	1607393301	3.028	1833098304000
0	1610910710	3.029	34342752000
0	1614457872	3.03	1837517528000
0	1618014492	3.031	3616883384000
0	1621577086	3.032	4623665392000
0	1625134547	3.033	1912346168000
0	1628681118	3.034	2051761904000
0	1632221812	3.035	1829117496000
0	1635788582	3.036	820661752000
0	1639350143	3.037	3610829352000
0	1642889581	3.038	60867784000
0	1646479553	3.039	2035556656000
0	1650100094	3.04	817027232000
0	1653680583	3.041	2042219944000
0	1657292499	3.042	1048443184000
0	1660911575	3.043	829585416000
0	1664537216	3.044	1823482248000
0	1668125648	3.045	3599437352000
0	1671737785	3.046	5478360120000
0	1675362138	3.047	2030987152000
0	1678972474	3.048	4397253176000
0	1682555758	3.049	88971048000
0	1686141530	3.05	55870304000
0	1689738469	3.051	269500904000
0	1693337992	3.052	2038762384000
0	1696914592	3.053	98637760000
0	1700510376	3.054	1855110208000
0	1704180972	3.055	2631428896000
0	1707833077	3.056	1831872600000
0	1711465330	3.057	4409061960000
0	1715113622	3.058	7255315216000
0	1718776296	3.059	26795912000
0	1722454788	3.06	854514520000
0	1726105758	3.061	26128904000
0	1729777807	3.062	2602434544000
0	1733449289	3.063	2604510672000
0	1737132343	3.064	38961040000
0	1740800377	3.065	266320568000
0	1744487552	3.066	3811184664000
0	1748180268	3.067	1057327200000
0	1751858821	3.068	884064896000
0	1755525376	3.069	51058632000
0	1759209764	3.07	1897043896000
0	1762900786	3.071	1116077976000
0	1766586927	3.072	1814877688000
0	1770280370	3.073	50928672000
0	1773970067	3.074	3429120248000
0	1777649902	3.075	276842504000
0	1781318185	3.076	260283608000
0	1784985812	3.077	271221640000
0	1788608819	3.078	1869951048000
0	1792229220	3.079	1828163608000
0	1795834700	3.08	834186144000
0	1799438881	3.081	4397691400000
0	1803059200	3.082	1038798696000
0	1806655972	3.083	99098152000
0	1810262142	3.084	902615984000
0	1813884630	3.085	1857466504000
0	1817516839	3.086	50386328000
0	1821114772	3.087	5391866088000
0	1824695326	3.088	2662938288000
0	1828267823	3.089	1890937560000
0	1831873125	3.09	819776232000
0	1835467087	3.091	826883520000
0	1839069922	3.092	4400999456000
0	1842686288	3.093	1831415296000
0	1846294352	3.094	3618688288000
0	1849888583	3.095	1066236928000
0	1853468886	3.096	2056598872000
0	1857054338	3.097	19635304000
0	1860622912	3.098	30732704000
0	1864175984	3.099	2035481632000
0	1867735647	3.1	839336200000
0	1871304118	3.101	35142784000
0	1874865634	3.102	833133496000
0	1878444697	3.103	1817520528000
0	1882021941	3.104	1849177720000
0	1885568098	3.105	79726424000
0	1889098453	3.106	1859067168000
0	1892613913	3.107	1046848352000
0	1896137471	3.108	1716461968000
0	1899700648	3.109	1722264264000
0	1903257152	3.11	49137424000
0	1906818760	3.111	2071450104000
0	1910370385	3.112	1846820608000
0	1913911382	3.113	841012632000
0	1917453750	3.114	277085864000
0	1921005747	3.115	1099472672000
0	1924563662	3.116	1841437872000
0	1928110789	3.117	4403876640000
0	1931665064	3.118	4619681992000
0	1935211459	3.119	467127272000
0	1938790531	3.12	1834383152000
0	1942375515	3.121	1832898728000
0	1945960875	3.122	95530104000
0	1949539636	3.123	1826971400000
0	1953108881	3.124	2042034424000
0	1956661862	3.125	1823404944000
0	1960238562	3.126	96037528000
0	1963827327	3.127	38982616000
0	1967378812	3.128	64295632000
0	1970936627	3.129	1616585944000
0	1974474326	3.13	837325984000
0	1977999774	3.131	42539616000
0	1981541274	3.132	30504312000
0	1985085243	3.133	71935872000
0	1988635249	3.134	2615418544000
0	1992163226	3.135	2620869504000
0	1995707961	3.136	3619765024000
0	1999247154	3.137	1826570696000
0	2002745268	3.138	825277448000
0	2006239839	3.139	1817890424000
0	2009733937	3.14	43034392000
0	2013236026	3.141	2605766752000
0	2016731280	3.142	3818862424000
0	2020214783	3.143	1806826936000
0	2023685111	3.144	3690398080000
0	2027178875	3.145	109243376000
0	2030659183	3.146	44036048000
0	2034132080	3.147	1840735648000
0	2037605743	3.148	1828373760000
0	2041064601	3.149	3844178296000
0	2044533321	3.15	31431064000
0	2048004653	3.151	43198544000
0	2051476608	3.152	4611296456000
0	2054965309	3.153	1857837144000
0	2058436567	3.154	6189571752000
0	2061918947	3.155	1097379392000
0	2065401956	3.156	102866560000
0	2068906173	3.157	3627225240000
0	2072399933	3.158	267228680000
0	2075881852	3.159	830633448000
0	2079385966	3.16	52381584000
0	2082882174	3.161	89274856000
0	2086357529	3.162	1847505592000
0	2089837022	3.163	1832802928000
0	2093350024	3.164	1827997408000
0	2096850540	3.165	2048882864000
0	2100355543	3.166	55468464000
0	2103880024	3.167	2835529880000
0	2107427752	3.168	832853752000
0	2110968448	3.169	1854919640000
0	2114477933	3.17	822794976000
0	2117988488	3.171	4417703376000
0	2121480177	3.172	2832331200000
0	2124971189	3.173	2608314080000
0	2128507803	3.174	261680072000
0	2132046844	3.175	1617200848000
0	2135581590	3.176	1823119424000
0	2139093636	3.177	1843533720000
0	2142606232	3.178	57521752000
0	2146141229	3.179	1841723056000
0	2149661285	3.18	44037392000
0	2153206125	3.181	2603644328000
0	2156736156	3.182	2847102552000
0	2160268530	3.183	2058919872000
0	2163813167	3.184	4421140376000
0	2167365071	3.185	2609104832000
0	2170925585	3.186	3647687904000
0	2174501042	3.187	912123968000
0	2178059078	3.188	1624838544000
0	2181605475	3.189	854118208000
0	2185187077	3.19	853812768000
0	2188767371	3.191	4409819120000
0	2192351974	3.192	2637422384000
0	2195966392	3.193	834038336000
0	2199596949	3.194	1601894080000
0	2203207255	3.195	1830727192000
0	2206817615	3.196	38703048000
0	2210447294	3.197	2660369016000
0	2214073493	3.198	1059631176000
0	2217684825	3.199	1823994144000
0	2221295924	3.2	1818699968000
0	2224914950	3.201	1804937176000
0	2228546460	3.202	1825037752000
0	2232202308	3.203	5185425872000
0	2235860165	3.204	29456816000
0	2239493832	3.205	3615436520000
0	2243128612	3.206	825409608000
0	2246752448	3.207	1815352752000
0	2250363931	3.208	262314736000
0	2253956730	3.209	1833685528000
0	2257556693	3.21	67316120000
0	2261151302	3.211	844435680000
0	2264764161	3.212	834866520000
0	2268415457	3.213	1881677224000
0	2272076435	3.214	54110568000
0	2275703404	3.215	50049304000
0	2279290523	3.216	1817124784000
0	2282850571	3.217	1840884624000
0	2286435717	3.218	58857376000
0	2290022741	3.219	42543008000
0	2293602102	3.22	2623363672000
0	2297202935	3.221	855664992000
0	2300778791	3.222	2334403112000
0	2304337947	3.223	1711365000000
0	2307896907	3.224	813869712000
0	2311469548	3.225	39677072000
0	2315021589	3.226	2627193720000
0	2318574605	3.227	1838443544000
0	2322129459	3.228	4396428400000
0	2325679317	3.229	34264528000
0	2329259386	3.23	1837507080000
0	2332838759	3.231	2639250768000
0	2336396175	3.232	6405166008000
0	2339939358	3.233	1836461400000
0	2343482021	3.234	1822785784000
0	2347009595	3.235	3594682248000
0	2350569308	3.236	37749096000
0	2354179902	3.237	4397580760000
0	2357770437	3.238	3594728600000
0	2361364704	3.239	3698314440000
0	2364938115	3.24	84372704000
0	2368530547	3.241	55881992000
0	2372125910	3.242	5410891584000
0	2375719265	3.243	1830969520000
0	2379329918	3.244	1818598208000
0	2382947931	3.245	44399272000
0	2386552043	3.246	1100386616000
0	2390180239	3.247	833531792000
0	2393810906	3.248	1061951600000
0	2397437203	3.249	2048928288000
0	2401070348	3.25	2116825144000
0	2404694654	3.251	47412008000
0	2408324677	3.252	261044624000
0	2411949484	3.253	278898256000
0	2415567330	3.254	4417816448000
0	2419185237	3.255	99548192000
0	2422817371	3.256	2060683488000
0	2426430910	3.257	850808288000
0	2430064656	3.258	1852322744000
0	2433714667	3.259	59319016000
0	2437328033	3.26	83346304000
0	2440924336	3.261	1836966864000
0	2444549377	3.262	264592064000
0	2448189557	3.263	845103016000
0	2451797419	3.264	2605597920000
0	2455410937	3.265	1831370784000
0	2459056323	3.266	1893795960000
0	2462682432	3.267	3595152896000
0	2466290096	3.268	31805720000
0	2469910977	3.269	46495008000
0	2473535972	3.27	1872979736000
0	2477168299	3.271	1831614600000
0	2480829573	3.272	1892344032000
0	2484492269	3.273	1831018968000
0	2488160820	3.274	1835422696000
0	2491839665	3.275	1834204240000
0	2495510390	3.276	1825814512000
0	2499156088	3.277	846581760000
0	2502818838	3.278	829929336000
0	2506471255	3.279	3597791080000
0	2510138290	3.28	1840694808000
0	2513804821	3.281	2623172696000
0	2517435140	3.282	3909523328000
0	2521053966	3.283	2618306688000
0	2524674294	3.284	5193848632000
0	2528289191	3.285	3604557936000
0	2531893126	3.286	50337336000
0	2535482695	3.287	40845672000
0	2539064161	3.288	3618838848000
0	2542662097	3.289	3621829360000
0	2546231464	3.29	2036576704000
0	2549783549	3.291	19848552000
0	2553303536	3.292	25885344000
0	2556853320	3.293	56546848000
0	2560430279	3.294	1625161536000
0	2564015203	3.295	1865506864000
0	2567606850	3.296	264937792000
0	2571200131	3.297	49433816000
0	2574816264	3.298	30081144000
0	2578409177	3.299	31307200000
0	2582003508	3.3	2061137552000
0	2585621573	3.301	5183814352000
0	2589234731	3.302	2844297032000
0	2592840696	3.303	69110584000
0	2596448467	3.304	819184904000
0	2600043940	3.305	1822371648000
0	2603626355	3.306	4415577376000
0	2607217364	3.307	3690300448000
0	2610804794	3.308	38796384000
0	2614357002	3.309	279950184000
0	2617901571	3.31	1040503408000
0	2621470417	3.311	1845134112000
0	2625022408	3.312	1823752520000
0	2628567925	3.313	43384928000
0	2632170349	3.314	846535280000
0	2635778428	3.315	2038995072000
0	2639332196	3.316	38431088000
0	2642889242	3.317	38750240000
0	2646450829	3.318	838136904000
0	2650044843	3.319	2069801056000
0	2653630988	3.32	1841334624000
0	2657184536	3.321	50645000000
0	2660743795	3.322	86586672000
0	2664315256	3.323	121593624000
0	2667850513	3.324	3603065768000
0	2671396977	3.325	55129904000
0	2674950337	3.326	5393575376000
0	2678496419	3.327	7174562400000
0	2682062500	3.328	1605103992000
0	2685623616	3.329	98545056000
0	2689197518	3.33	40143424000
0	2692759832	3.331	5407398408000
0	2696312335	3.332	2612236208000
0	2699885439	3.333	4899628656000
0	2703447179	3.334	59885176000
0	2706999072	3.335	1843565752000
0	2710558002	3.336	2621721512000
0	2714138884	3.337	52216008000
0	2717703231	3.338	837612008000
0	2721236793	3.339	1604113448000
0	2724753361	3.34	36878896000
0	2728258459	3.341	5399199808000
0	2731761671	3.342	2615604536000
0	2735257536	3.343	2606797720000
0	2738749721	3.344	296752808000
0	2742253927	3.345	2034042272000
0	2745797599	3.346	832340488000
0	2749320042	3.347	51774768000
0	2752843609	3.348	38941072000
0	2756371927	3.349	1841402776000
0	2759868473	3.35	845040400000
0	2763380148	3.351	823204744000
0	2766898090	3.352	1835729848000
0	2770436380	3.353	4385502976000
0	2773976900	3.354	58181632000
0	2777472535	3.355	1687551360000
0	2780974945	3.356	1826998592000
0	2784489997	3.357	4423648240000
0	2788006492	3.358	1848713064000
0	2791525505	3.359	92794336000
0	2795054707	3.36	1063762976000
0	2798562941	3.361	1050330952000
0	2802070240	3.362	1834618568000
0	2805589122	3.363	2054888768000
0	2809120635	3.364	3833132288000
0	2812651274	3.365	1899581032000
0	2816212199	3.366	2618112608000
0	2819761480	3.367	54750064000
0	2823273622	3.368	4329356008000
0	2826779410	3.369	1826607800000
0	2830289748	3.37	3832644984000
0	2833830330	3.371	2611912592000
0	2837395154	3.372	1843096344000
0	2840976470	3.373	58837224000
0	2844559355	3.374	29780368000
0	2848111377	3.375	1838010624000
0	2851666330	3.376	1812580648000
0	2855241742	3.377	3612754120000
0	2858817673	3.378	818577568000
0	2862401748	3.379	2834890128000
0	2865987624	3.38	3619774992000
0	2869583903	3.381	152438592000
0	2873210448	3.382	2035770672000
0	2876832609	3.383	1833394008000
0	2880461320	3.384	44000640000
0	2884067062	3.385	1829753224000
0	2887635076	3.386	32937976000
0	2891219060	3.387	264161944000
0	2894810150	3.388	248260088000
0	2898368863	3.389	23462072000
0	2901932141	3.39	829074840000
0	2905508466	3.391	47333888000
0	2909077230	3.392	41674440000
0	2912624581	3.393	79955992000
0	2916147286	3.394	3850414408000
0	2919627584	3.395	36090912000
0	2923124014	3.396	248899296000
0	2926657547	3.397	257934936000
0	2930186144	3.398	1828996592000
0	2933709873	3.399	5395719864000
0	2937243799	3.4	3837838136000
0	2940806389	3.401	2634619024000
0	2944353346	3.402	1061840480000
0	2947866985	3.403	31336392000
0	2951369806	3.404	957166304000
0	2954889261	3.405	1825493544000
0	2958444160	3.406	1829151448000
0	2962000815	3.407	25495840000
0	2965532810	3.408	821638760000
0	2969059547	3.409	3608221304000
0	2972573223	3.41	853023208000
0	2976087587	3.411	824833848000
0	2979616529	3.412	2073239768000
0	2983154325	3.413	3610267352000
0	2986686909	3.414	36437288000
0	2990230515	3.415	4391358032000
0	2993749027	3.416	3835466712000
0	2997270944	3.417	267976960000
0	3000817360	3.418	3616289840000
0	3004370858	3.419	3610816304000
0	3007914720	3.42	1088668816000
0	3011455604	3.421	385722600000
0	3014983770	3.422	1818415504000
0	3018529912	3.423	1838746448000
0	3022087758	3.424	3824343832000
0	3025637390	3.425	1846757496000
0	3029180658	3.426	3610032728000
0	3032728843	3.427	29262424000
0	3036287039	3.428	5461443448000
0	3039847632	3.429	7989721320000
0	3043404223	3.43	1827315488000
0	3046954850	3.431	3608806432000
0	3050497419	3.432	3827460800000
0	3054025198	3.433	247056632000
0	3057535184	3.434	44585048000
0	3061060818	3.435	41432072000
0	3064597259	3.436	1825156240000
0	3068106183	3.437	1895104728000
0	3071619338	3.438	67931848000
0	3075158728	3.439	3477992936000
0	3078688179	3.44	826926416000
0	3082190803	3.441	101694320000
0	3085675517	3.442	258957032000
0	3089192092	3.443	1843782872000
0	3092692252	3.444	1830928568000
0	3096206119	3.445	119545440000
0	3099727188	3.446	255031232000
0	3103230473	3.447	1857222728000
0	3106718011	3.448	38267096000
0	3110217203	3.449	855308144000
0	3113703399	3.45	60480584000
0	3117216607	3.451	2623775376000
0	3120724816	3.452	36850216000
0	3124248809	3.453	1633475592000
0	3127749935	3.454	36260360000
0	3131245924	3.455	2426983376000
0	3134727782	3.456	1808579136000
0	3138196725	3.457	1855281472000
0	3141658157	3.458	1815901624000
0	3145103826	3.459	1819768800000
0	3148552630	3.46	1834838472000
0	3152011145	3.461	3615885664000
0	3155486069	3.462	7193690960000
0	3158965493	3.463	45127032000
0	3162438973	3.464	324193032000
0	3165881198	3.465	473447752000
0	3169327584	3.466	94567368000
0	3172783027	3.467	1825171896000
0	3176232734	3.468	828173344000
0	3179699284	3.469	2277995392000
0	3183166433	3.47	37482384000
0	3186625744	3.471	1862803168000
0	3190062922	3.472	1832878168000
0	3193502786	3.473	841502688000
0	3196951357	3.474	1847726016000
0	3200422480	3.475	51615280000
0	3203883117	3.476	868103744000
0	3207365470	3.477	3612689936000
0	3210836140	3.478	2613121952000
0	3214329426	3.479	2061823920000
0	3217836755	3.48	4407220832000
0	3221342919	3.481	34814568000
0	3224831570	3.482	2836698264000
0	3228350807	3.483	114262248000
0	3231876252	3.484	825701000000
0	3235382374	3.485	1047003040000
0	3238891334	3.486	45162328000
0	3242403897	3.487	2037609640000
0	3245912028	3.488	4397747912000
0	3249431277	3.489	3600355336000
0	3252912561	3.49	832271872000
0	3256388146	3.491	77410120000
0	3259873165	3.492	2066715920000
0	3263356432	3.493	41727200000
0	3266861117	3.494	4403253696000
0	3270391148	3.495	1612521536000
0	3273909741	3.496	3041766176000
0	3277460276	3.497	1627399096000
0	3281023859	3.498	54764112000
0	3284550433	3.499	36714608000
0	3288059889	3.5	49476600000
0	3291583747	3.501	35609936000
0	3295112452	3.502	2050861168000
0	3298647433	3.503	1067166600000
0	3302208706	3.504	3431805672000
0	3305745738	3.505	4392972632000
0	3309263526	3.506	53832200000
0	3312801680	3.507	59383584000
0	3316346383	3.508	2829661952000
0	3319892228	3.509	485813552000
0	3323467053	3.51	2674874504000
0	3327021750	3.511	839381832000
0	3330563392	3.512	1825229800000
0	3334090525	3.513	1814210928000
0	3337617490	3.514	1811653072000
0	3341141193	3.515	2818647064000
0	3344671859	3.516	1892698824000
0	3348170010	3.517	2616799184000
0	3351680752	3.518	58479320000
0	3355208903	3.519	2031765312000
0	3358727486	3.52	290103880000
0	3362195415	3.521	1808694872000
0	3365679059	3.522	2421994256000
0	3369196572	3.523	2263591264000
0	3372685899	3.524	24349992000
0	3376146529	3.525	38016816000
0	3379619550	3.526	1822650704000
0	3383111217	3.527	2627650960000
0	3386632284	3.528	1046112384000
0	3390189735	3.529	1840672376000
0	3393727698	3.53	2026799544000
0	3397293495	3.531	47604888000
0	3400861971	3.532	1814439952000
0	3404420842	3.533	4418078832000
0	3407947855	3.534	44836800000
0	3411455999	3.535	43402400000
0	3414946616	3.536	1617341784000
0	3418447232	3.537	824739128000
0	3421961607	3.538	1817722088000
0	3425463233	3.539	1817378944000
0	3428948422	3.54	79022960000
0	3432442746	3.541	253956016000
0	3435924378	3.542	1816178184000
0	3439392549	3.543	4038750696000
0	3442864308	3.544	4406334528000
0	3446356187	3.545	65196936000
0	3449872234	3.546	36648512000
0	3453384005	3.547	1816823200000
0	3456904543	3.548	3612685176000
0	3460427365	3.549	3606787792000
0	3463946527	3.55	44492424000
0	3467473979	3.551	66011800000
0	3470992005	3.552	257658496000
0	3474541842	3.553	3610349680000
0	3478090288	3.554	58362880000
0	3481678901	3.555	36167656000
0	3485251694	3.556	54631072000
0	3488843329	3.557	1851915216000
0	3492426019	3.558	2609432432000
0	3496003903	3.559	30511960000
0	3499558928	3.56	62858680000
0	3503112177	3.561	836776624000
0	3506659341	3.562	62587936000
0	3510186068	3.563	2842033120000
0	3513709243	3.564	3839106784000
0	3517228280	3.565	4392806072000
0	3520732293	3.566	3678526792000
0	3524251679	3.567	845499760000
0	3527770470	3.568	4477549080000
0	3531331376	3.569	2063720504000
0	3534903177	3.57	1847697144000
0	3538483031	3.571	256625120000
0	3542093119	3.572	31686304000
0	3545707344	3.573	885011480000
0	3549299522	3.574	44480736000
0	3552854364	3.575	821204704000
0	3556419826	3.576	33806464000
0	3559960422	3.577	826754976000
0	3563518536	3.578	5399130120000
0	3567078727	3.579	2477741048000
0	3570686759	3.58	2032616104000
0	3574290438	3.581	32720584000
0	3577915544	3.582	4391078208000
0	3581538743	3.583	1041550504000
0	3585153620	3.584	1099406000000
0	3588766770	3.585	57340600000
0	3592387851	3.586	1045234968000
0	3595985788	3.587	821462576000
0	3599590631	3.588	1819355672000
0	3603208703	3.589	2042227744000
0	3606845245	3.59	1841147824000
0	3610475444	3.591	1833059864000
0	3614080913	3.592	86538032000
0	3617662972	3.593	47036144000
0	3621220034	3.594	1635755400000
0	3624772414	3.595	36345096000
0	3628335458	3.596	73202568000
0	3631873036	3.597	394670064000
0	3635412510	3.598	1926012960000
0	3638943915	3.599	3668088720000
0	3642462397	3.6	2903723696000
0	3646006527	3.601	829213480000
0	3649543545	3.602	245264928000
0	3653081046	3.603	830277208000
0	3656640932	3.604	294556592000
0	3660189541	3.605	122458840000
0	3663715288	3.606	2843250720000
0	3667257280	3.607	2042919624000
0	3670793272	3.608	811449640000
0	3674325747	3.609	2415096744000
0	3677843492	3.61	1817905224000
0	3681366308	3.611	829772296000
0	3684895739	3.612	1701848176000
0	3688391398	3.613	44147680000
0	3691884606	3.614	5408708168000
0	3695390780	3.615	46388544000
0	3698924558	3.616	1834046680000
0	3702436143	3.617	2431431464000
0	3705955464	3.618	2638916288000
0	3709449918	3.619	21579528000
0	3712955350	3.62	2610538440000
0	3716471774	3.621	1830671784000
0	3719980948	3.622	258576256000
0	3723467881	3.623	3633036632000
0	3726923053	3.624	853800448000
0	3730367936	3.625	1835410144000
0	3733823056	3.626	51981664000
0	3737272094	3.627	255253688000
0	3740734886	3.628	1886898384000
0	3744159720	3.629	40894392000
0	3747573784	3.63	4064365048000
0	3750995899	3.631	1806190176000
0	3754424429	3.632	2679996192000
0	3757852309	3.633	62699152000
0	3761288696	3.634	5498338440000
0	3764742889	3.635	3604803368000
0	3768225165	3.636	58114840000
0	3771707781	3.637	841316632000
0	3775181998	3.638	3621844480000
0	3778679785	3.639	832657416000
0	3782169383	3.64	4052867944000
0	3785653814	3.641	257463504000
0	3789167264	3.642	2043699384000
0	3792709919	3.643	1828654696000
0	3796253072	3.644	6207374888000
0	3799817908	3.645	4410487608000
0	3803395660	3.646	6180540048000
0	3806953445	3.647	105085120000
0	3810499687	3.648	322952448000
0	3814043695	3.649	46896872000
0	3817588846	3.65	275998160000
0	3821137029	3.651	857903000000
0	3824666985	3.652	1858113312000
0	3828196363	3.653	1843200264000
0	3831729022	3.654	3623393576000
0	3835260159	3.655	2047639128000
0	3838833154	3.656	4403557496000
0	3842411198	3.657	263545712000
0	3845941527	3.658	824710864000
0	3849496481	3.659	2256706440000
0	3853029274	3.66	833829584000
0	3856570354	3.661	1830519408000
0	3860132643	3.662	854751400000
0	3863670122	3.663	42786712000
0	3867204411	3.664	838083008000
0	3870719457	3.665	67082616000
0	3874237795	3.666	245941304000
0	3877761036	3.667	1836995808000
0	3881294433	3.668	2053950944000
0	3884820222	3.669	46552904000
0	3888362617	3.67	3822235808000
0	3891902816	3.671	834188168000
0	3895419273	3.672	58406528000
0	3898949146	3.673	815903456000
0	3902471343	3.674	1822918720000
0	3905993985	3.675	43583560000
0	3909521784	3.676	88088200000
0	3913055920	3.677	2625363032000
0	3916615748	3.678	60926304000
0	3920159441	3.679	1823004048000
0	3923713129	3.68	846809456000
0	3927294311	3.681	249847104000
0	3930824854	3.682	1827836792000
0	3934399917	3.683	2630146456000
0	3937982755	3.684	2616159768000
0	3941551958	3.685	42203880000
0	3945104509	3.686	59914664000
0	3948652844	3.687	43994848000
0	3952197473	3.688	843853552000
0	3955745468	3.689	19251184000
0	3959298087	3.69	29043272000
0	3962888841	3.691	1825615032000
0	3966484465	3.692	832270848000
0	3970089049	3.693	44608592000
0	3973710383	3.694	28689152000
0	3977313080	3.695	1820247912000
0	3980949791	3.696	1848881584000
0	3984572790	3.697	1616574128000
0	3988196188	3.698	39729192000
0	3991848501	3.699	1893058248000
0	3995490497	3.7	64177400000
0	3999106080	3.701	40007176000
0	4002720814	3.702	1614440776000
0	4006336644	3.703	1039732672000
0	4009922454	3.704	839753152000
0	4013494931	3.705	3607154720000
0	4017084314	3.706	70803744000
0	4020687963	3.707	4414591168000
0	4024303440	3.708	2844997104000
0	4027916756	3.709	49091032000
0	4031511753	3.71	2605295832000
0	4035100419	3.711	43658424000
0	4038667153	3.712	842553136000
0	4042223204	3.713	2281344088000
0	4045783108	3.714	1822877624000
0	4049367876	3.715	5187164984000
0	4052972405	3.716	80534056000
0	4056607459	3.717	4408548960000
0	4060221112	3.718	1833220800000
0	4063843965	3.719	1823995016000
0	4067450680	3.72	90356736000
0	4071032997	3.721	841186800000
0	4074607356	3.722	2846891816000
0	4078173418	3.723	1851212672000
0	4081764886	3.724	2615754464000
0	4085376097	3.725	57364872000
0	4088979991	3.726	52116192000
0	4092593536	3.727	3402630248000
0	4096215449	3.728	3662117184000
0	4099812177	3.729	270590672000
0	4103414414	3.73	1039906368000
0	4106988936	3.731	54571104000
0	4110578251	3.732	832253928000
0	4114154984	3.733	2623511632000
0	4117731861	3.734	3842033976000
0	4121335072	3.735	1832871800000
0	4124952488	3.736	1059096720000
0	4128556589	3.737	830654456000
0	4132134375	3.738	50035848000
0	4135702183	3.739	2630583208000
0	4139251990	3.74	888003152000
0	4142804969	3.741	855184704000
0	4146338079	3.742	43665600000
0	4149880756	3.743	2059887624000
0	4153425532	3.744	4413655384000
0	4156970523	3.745	43273048000
0	4160519413	3.746	840740912000
0	4164034208	3.747	2032330312000
0	4167575433	3.748	4984655792000
0	4171130228	3.749	1828680416000
0	4174687276	3.75	72679384000
0	4178250392	3.751	61097816000
0	4181791392	3.752	5283188312000
0	4185322872	3.753	111483488000
0	4188893461	3.754	1821970616000
0	4192469524	3.755	2045738968000
0	4196091760	3.756	316398824000
0	4199670268	3.757	856398744000
0	4203233328	3.758	1845804880000
0	4206775064	3.759	56787984000
0	4210340946	3.76	3435813624000
0	4213896517	3.761	51156240000
0	4217456518	3.762	113787552000
0	4221005976	3.763	46304888000
0	4224540276	3.764	1045861368000
0	4228080871	3.765	156046040000
0	4231629991	3.766	1842302488000
0	4235159480	3.767	55037416000
0	4238694665	3.768	1821399544000
0	4242216731	3.769	248018008000
0	4245719404	3.77	841085200000
0	4249258665	3.771	1625302648000
0	4252796424	3.772	20539904000
0	4256332752	3.773	1809950128000
0	4259875114	3.774	3613979824000
0	4263418983	3.775	3815719192000
0	4266950483	3.776	56445272000
0	4270465200	3.777	1822062312000
0	4273988210	3.778	850124088000
0	4277528901	3.779	3640664824000
0	4281034612	3.78	182582152000
0	4284568785	3.781	1838601168000
0	4288106813	3.782	1828079408000
0	4291625017	3.783	1616883432000
0	4295140259	3.784	1825718608000
0	4298661555	3.785	249032808000
0	4302189101	3.786	848552232000
0	4305695116	3.787	33664256000
0	4309205478	3.788	1042990632000
0	4312705315	3.789	819430096000
0	4316213551	3.79	834651376000
0	4319756276	3.791	106566928000
0	4323285818	3.792	1825591832000
0	4326811996	3.793	38719352000
0	4330310856	3.794	5198185192000
0	4333800325	3.795	1833075240000
0	4337326940	3.796	1845674920000
0	4340863960	3.797	256414816000
0	4344391875	3.798	1814912128000
0	4347898493	3.799	836117968000
0	4351414270	3.8	267942592000
0	4354924031	3.801	1836600368000
0	4358449271	3.802	2422966000000
0	4362000489	3.803	36897560000
0	4365542610	3.804	315004432000
0	4369081244	3.805	3460189544000
0	4372614219	3.806	1840649880000
0	4376115126	3.807	41040904000
0	4379607219	3.808	896161720000
0	4383144140	3.809	282132440000
0	4386661047	3.81	50752848000
0	4390198506	3.811	258128432000
0	4393732870	3.812	832137224000
0	4397294898	3.813	2637783648000
0	4400848276	3.814	2051684456000
0	4404402726	3.815	1625748104000
0	4407959214	3.816	2611724912000
0	4411524302	3.817	824946872000
0	4415085340	3.818	263972976000
0	4418646161	3.819	1867470352000
0	4422194163	3.82	1853785496000
0	4425768126	3.821	1129099776000
0	4429322465	3.822	1634816864000
0	4432873269	3.823	2864776568000
0	4436416542	3.824	846291304000
0	4439978640	3.825	3596283840000
0	4443538004	3.826	134158104000
0	4447103840	3.827	41147336000
0	4450694708	3.828	2871379328000
0	4454276273	3.829	57371360000
0	4457861312	3.83	816169800000
0	4461467576	3.831	3630137928000
0	4465082212	3.832	4606257136000
0	4468700075	3.833	259651552000
0	4472321105	3.834	3826209640000
0	4475941955	3.835	33052952000
0	4479568286	3.836	58400280000
0	4483215209	3.837	1833586840000
0	4486875040	3.838	2840125552000
0	4490540077	3.839	113240880000
0	4494192414	3.84	1890911288000
0	4497861544	3.841	42422896000
0	4501528143	3.842	62988496000
0	4505211572	3.843	1875545632000
0	4508868640	3.844	828057448000
0	4512550173	3.845	2610804872000
0	4516215858	3.846	6208601608000
0	4519868042	3.847	823573512000
0	4523509666	3.848	44682888000
0	4527146340	3.849	936606360000
0	4530783174	3.85	1853274224000
0	4534422029	3.851	27937224000
0	4538044983	3.852	4409409968000
0	4541651290	3.853	842652752000
0	4545244402	3.854	6170855576000
0	4548835388	3.855	832070032000
0	4552414385	3.856	1827297048000
0	4555992046	3.857	260776872000
0	4559566357	3.858	102697728000
0	4563165158	3.859	1264290576000
0	4566729754	3.86	43030264000
0	4570281565	3.861	28878240000
0	4573823426	3.862	49802976000
0	4577348673	3.863	33389720000
0	4580888803	3.864	3617273760000
0	4584423498	3.865	1620340416000
0	4587975585	3.866	1037467912000
0	4591533415	3.867	830589096000
0	4595096732	3.868	2612582208000
0	4598663005	3.869	3818234368000
0	4602232601	3.87	1817926264000
0	4605770349	3.871	41567512000
0	4609326983	3.872	2254613488000
0	4612862751	3.873	31156704000
0	4616407091	3.874	38793576000
0	4619951734	3.875	888503808000
0	4623498586	3.876	3619847024000
0	4627051352	3.877	99853664000
0	4630603557	3.878	38360048000
0	4634149164	3.879	849040512000
0	4637708889	3.88	70266136000
0	4641249585	3.881	2607287400000
0	4644796730	3.882	1818949312000
0	4648353083	3.883	317652464000
0	4651897504	3.884	33108056000
0	4655436346	3.885	253730120000
0	4658986821	3.886	54575672000
0	4662523162	3.887	827441736000
0	4666058588	3.888	30820480000
0	4669612045	3.889	2036774840000
0	4673163762	3.89	69594848000
0	4676701460	3.891	1046869320000
0	4680240941	3.892	854512928000
0	4683789758	3.893	4618432216000
0	4687353637	3.894	2627687576000
0	4690923342	3.895	5247173776000
0	4694522650	3.896	1828205128000
0	4698135101	3.897	1833175072000
0	4701770030	3.898	1824845488000
0	4705383562	3.899	4622798672000
0	4708995983	3.9	846285832000
0	4712608541	3.901	1831662560000
0	4716221045	3.902	43213448000
0	4719826440	3.903	110047840000
0	4723442060	3.904	252621136000
0	4727069189	3.905	1832098608000
0	4730660822	3.906	1876365184000
0	4734260087	3.907	891365560000
0	4737855079	3.908	270358024000
0	4741445899	3.909	3857288776000
0	4745026139	3.91	37529184000
0	4748617826	3.911	2613471808000
0	4752236005	3.912	2833832552000
0	4755872396	3.913	65750680000
0	4759470890	3.914	5415984504000
0	4763101099	3.915	264248664000
0	4766715524	3.916	2603635112000
0	4770310972	3.917	80059920000
0	4773891873	3.918	31591480000
0	4777465981	3.919	1043310704000
0	4781019588	3.92	1850422352000
0	4784586698	3.921	37429464000
0	4788152397	3.922	1840838392000
0	4791719610	3.923	1831849512000
0	4795280032	3.924	5387449944000
0	4798880075	3.925	3610064440000
0	4802451609	3.926	6194559736000
0	4806039072	3.927	1823070040000
0	4809645598	3.928	66486064000
0	4813242059	3.929	1824637128000
0	4816861860	3.93	85332248000
0	4820494142	3.931	3660042656000
0	4824137269	3.932	4391072128000
0	4827753947	3.933	812733192000
0	4831364267	3.934	2625565072000
0	4834970092	3.935	1616884600000
0	4838580149	3.936	1832196272000
0	4842197720	3.937	25361168000
0	4845828447	3.938	3606846968000
0	4849452071	3.939	39664560000
0	4853084161	3.94	1824650880000
0	4856713436	3.941	4404781752000
0	4860342273	3.942	1837006448000
0	4863932685	3.943	1877302632000
0	4867554693	3.944	264864232000
0	4871163015	3.945	57140192000
0	4874782689	3.946	2835463464000
0	4878419490	3.947	4411906816000
0	4882059070	3.948	883265304000
0	4885727397	3.949	2621846632000
0	4889395088	3.95	1821403368000
0	4893074444	3.951	127269584000
0	4896731812	3.952	908254632000
0	4900404603	3.953	1816817200000
0	4904098472	3.954	4392397736000
0	4907781777	3.955	1819611072000
0	4911458740	3.956	255085928000
0	4915116386	3.957	48851224000
0	4918772866	3.958	36133744000
0	4922432075	3.959	3605629304000
0	4926080631	3.96	245645144000
0	4929745944	3.961	43365600000
0	4933371395	3.962	2609651096000
0	4937019968	3.963	5196737872000
0	4940686802	3.964	46056256000
0	4944341034	3.965	38076528000
0	4948007108	3.966	3630545680000
0	4951647703	3.967	1819751960000
0	4955318273	3.968	55652112000
0	4958990721	3.969	272241136000
0	4962662114	3.97	30449848000
0	4966326957	3.971	1816174264000
0	4969959657	3.972	59592976000
0	4973586736	3.973	1840571888000
0	4977219271	3.974	842263552000
0	4980840449	3.975	3400254736000
0	4984445773	3.976	1845848704000
0	4988061976	3.977	1858245328000
0	4991690185	3.978	71776280000
0	4995299691	3.979	56546392000
0	4998878863	3.98	5998323456000
0	5002473246	3.981	36005752000
0	5006056605	3.982	1631373584000
0	5009628668	3.983	1062526248000
0	5013189640	3.984	52072376000
0	5016741153	3.985	85221264000
0	5020282156	3.986	821453048000
0	5023847354	3.987	78380736000
0	5027404132	3.988	57359360000
0	5030938387	3.989	826283168000
0	5034497303	3.99	2842574736000
0	5038038814	3.991	1821762168000
0	5041557771	3.992	3632266576000
0	5045063196	3.993	2095136736000
0	5048567627	3.994	827179872000
0	5052057429	3.995	256900408000
0	5055541400	3.996	37941512000
0	5059037999	3.997	1062526392000
0	5062521953	3.998	55809528000
0	5066002363	3.999	4622977888000
0	5069486670	4	2627537968000
0	5072961778	4.001	1819188832000
0	5076455748	4.002	1832741096000
0	5079949061	4.003	4930868448000
0	5083446979	4.004	43246376000
0	5086970875	4.005	2617939848000
0	5090472939	4.006	3654502040000
0	5094000786	4.007	40545304000
0	5097531175	4.008	853172024000
0	5101030822	4.009	1836566856000
0	5104550886	4.01	1825095968000
0	5108081181	4.011	1826669408000
0	5111613015	4.012	829435824000
0	5115132795	4.013	901724264000
0	5118639265	4.014	829375248000
0	5122141109	4.015	31635744000
0	5125640001	4.016	1890821080000
0	5129149223	4.017	1820788200000
0	5132650492	4.018	35227096000
0	5136133353	4.019	2614309720000
0	5139635909	4.02	480879040000
0	5143142172	4.021	820975624000
0	5146645195	4.022	2604864832000
0	5150176045	4.023	91198104000
0	5153706610	4.024	48527784000
0	5157264404	4.025	48025280000
0	5160784919	4.026	2404416320000
0	5164310987	4.027	2607272872000
0	5167843184	4.028	468643920000
0	5171387990	4.029	2815102640000
0	5174899279	4.03	37049552000
0	5178451622	4.031	5414782760000
0	5182022975	4.032	2848800816000
0	5185610611	4.033	1823563992000
0	5189177956	4.034	1814718872000
0	5192746585	4.035	832193136000
0	5196302760	4.036	1865402712000
0	5199880329	4.037	5388642696000
0	5203477758	4.038	93632752000
0	5207051590	4.039	279702032000
0	5210617466	4.04	1849370904000
0	5214182584	4.041	1816569688000
0	5217738136	4.042	2614330776000
0	5221299441	4.043	816307392000
0	5224852571	4.044	1916904040000
0	5228418113	4.045	2064472320000
0	5231977339	4.046	271524472000
0	5235553430	4.047	1844001584000
0	5239097019	4.048	31831312000
0	5242665454	4.049	4187301392000
0	5246231143	4.05	1835941632000
0	5249791798	4.051	2605023448000
0	5253347316	4.052	821264536000
0	5256891884	4.053	2078723040000
0	5260439245	4.054	251887640000
0	5263980161	4.055	50438824000
0	5267516747	4.056	890855368000
0	5271031763	4.057	827269600000
0	5274546081	4.058	1618570320000
0	5278075434	4.059	245792304000
0	5281576086	4.06	36397144000
0	5285076109	4.061	2824516304000
0	5288574143	4.062	1609231792000
0	5292099569	4.063	32609240000
0	5295646965	4.064	50746344000
0	5299213391	4.065	2056405008000
0	5302756154	4.066	325295176000
0	5306305327	4.067	1853071536000
0	5309851893	4.068	1830145928000
0	5313402422	4.069	1813300808000
0	5316968011	4.07	1825471400000
0	5320510148	4.071	2027606328000
0	5324066841	4.072	2436581776000
0	5327611185	4.073	49772232000
0	5331150550	4.074	4633120816000
0	5334686285	4.075	5417819856000
0	5338224268	4.076	1816051768000
0	5341761191	4.077	2622878200000
0	5345279082	4.078	2096932120000
0	5348783312	4.079	857551768000
0	5352286689	4.08	841656992000
0	5355814252	4.081	868891136000
0	5359346087	4.082	46247952000
0	5362897893	4.083	120010760000
0	5366428993	4.084	36802152000
0	5369966519	4.085	848732112000
0	5373507084	4.086	97203424000
0	5377042827	4.087	43426816000
0	5380605788	4.088	52322400000
0	5384163754	4.089	2614021104000
0	5387734456	4.09	479690000000
0	5391345672	4.091	1969894960000
0	5394919829	4.092	57099600000
0	5398466332	4.093	1817495992000
0	5401989444	4.094	3628652616000
0	5405512663	4.095	2069279056000
0	5409042546	4.096	1828414368000
0	5412577987	4.097	5422028560000
0	5416133644	4.098	4401744824000
0	5419702259	4.099	2632825544000
0	5423288590	4.1	68364632000
0	5426872184	4.101	4187244992000
0	5430458984	4.102	2865038160000
0	5434046254	4.103	2061551128000
0	5437664544	4.104	46300512000
0	5441273540	4.105	38064808000
0	5444865187	4.106	2626233040000
0	5448463562	4.107	1827055576000
0	5452083171	4.108	1948538560000
0	5455661320	4.109	1836756128000
0	5459227714	4.11	254434064000
0	5462818559	4.111	1835635640000
0	5466407709	4.112	101811752000
0	5469965322	4.113	38993440000
0	5473517156	4.114	31709512000
0	5477071427	4.115	50767720000
0	5480620438	4.116	1829627112000
0	5484172202	4.117	31885360000
0	5487730651	4.118	31328464000
0	5491255742	4.119	3399801800000
0	5494784974	4.12	1854105528000
0	5498312795	4.121	45360696000
0	5501869236	4.122	35146368000
0	5505411883	4.123	55162448000
0	5508962681	4.124	65530136000
0	5512509189	4.125	6401808928000
0	5516066315	4.126	3610282944000
0	5519637841	4.127	279926480000
0	5523204471	4.128	850557104000
0	5526766711	4.129	40132584000
0	5530288394	4.13	37443128000
0	5533794360	4.131	1899078056000
0	5537297340	4.132	160088936000
0	5540823974	4.133	4416601376000
0	5544349577	4.134	2620080984000
0	5547896878	4.135	26523520000
0	5551435316	4.136	2633128976000
0	5554960429	4.137	46417376000
0	5558463904	4.138	264005728000
0	5561953086	4.139	2623435792000
0	5565465469	4.14	324276544000
0	5568971706	4.141	4396144528000
0	5572487915	4.142	1831736600000
0	5576045950	4.143	117072424000
0	5579612566	4.144	3631536000000
0	5583189033	4.145	46157400000
0	5586768795	4.146	254856376000
0	5590339218	4.147	60454512000
0	5593907062	4.148	1818656968000
0	5597483613	4.149	3635967472000
0	5601034932	4.15	2837211200000
0	5604614657	4.151	259804544000
0	5608187605	4.152	23361672000
0	5611739909	4.153	833833608000
0	5615281217	4.154	35930648000
0	5618833345	4.155	966078464000
0	5622409356	4.156	259762064000
0	5625971276	4.157	1816199696000
0	5629531019	4.158	21918000000
0	5633097373	4.159	1843608696000
0	5636647879	4.16	4393567608000
0	5640236210	4.161	6400997624000
0	5643828421	4.162	1619128264000
0	5647420644	4.163	3695796136000
0	5651022038	4.164	5415173824000
0	5654594866	4.165	2674230712000
0	5658171450	4.166	1825075280000
0	5661740145	4.167	3607147832000
0	5665323815	4.168	2678076032000
0	5668923084	4.169	130149992000
0	5672524083	4.17	845418864000
0	5676104282	4.171	5388842936000
0	5679679725	4.172	1895088976000
0	5683244354	4.173	30923864000
0	5686822407	4.174	44221640000
0	5690439148	4.175	856881600000
0	5694062170	4.176	53717304000
0	5697687653	4.177	1820570080000
0	5701297191	4.178	43731352000
0	5704907502	4.179	1056976992000
0	5708507229	4.18	68859960000
0	5712102027	4.181	31635904000
0	5715717403	4.182	1883904288000
0	5719349640	4.183	1853936136000
0	5722997659	4.184	4418820688000
0	5726666896	4.185	3606128688000
0	5730316889	4.186	275977424000
0	5733930068	4.187	256259248000
0	5737533986	4.188	4416025808000
0	5741105038	4.189	1824413296000
0	5744662223	4.19	3613048992000
0	5748232252	4.191	72943160000
0	5751828510	4.192	829406752000
0	5755410402	4.193	53767336000
0	5758987240	4.194	2613150480000
0	5762591772	4.195	121364336000
0	5766186210	4.196	271815688000
0	5769787127	4.197	38549776000
0	5773387242	4.198	2609518128000
0	5776991955	4.199	3393858480000
0	5780599667	4.2	1846145304000
0	5784184457	4.201	240878280000
0	5787761364	4.202	3830848664000
0	5791347016	4.203	1821631736000
0	5794918080	4.204	1608095096000
0	5798490988	4.205	834776808000
0	5802056304	4.206	1825669424000
0	5805646767	4.207	1056884840000
0	5809226727	4.208	37805696000
0	5812797945	4.209	853454184000
0	5816342095	4.21	2049227896000
0	5819896934	4.211	83928680000
0	5823419982	4.212	61520872000
0	5826947991	4.213	1837187160000
0	5830489926	4.214	1881332584000
0	5834022712	4.215	34792576000
0	5837547947	4.216	1053369592000
0	5841109001	4.217	1320737152000
0	5844697891	4.218	3638723568000
0	5848281176	4.219	268312072000
0	5851854385	4.22	158084504000
0	5855425160	4.221	3414994568000
0	5858961478	4.222	260681072000
0	5862477593	4.223	22569384000
0	5866008599	4.224	3831139800000
0	5869570282	4.225	1844366976000
0	5873132696	4.226	1828757320000
0	5876713231	4.227	2069880496000
0	5880306775	4.228	1834688888000
0	5883891556	4.229	4453616592000
0	5887480630	4.23	2629240736000
0	5891063268	4.231	41204160000
0	5894637772	4.232	826048408000
0	5898202944	4.233	58187568000
0	5901790128	4.234	47306584000
0	5905381417	4.235	41824408000
0	5908986576	4.236	4445061928000
0	5912581570	4.237	45609696000
0	5916162294	4.238	1275912664000
0	5919755086	4.239	5189805912000
0	5923329274	4.24	38684008000
0	5926898584	4.241	104449528000
0	5930465933	4.242	1629562784000
0	5934015369	4.243	2057956624000
0	5937551178	4.244	1845139624000
0	5941101597	4.245	1037146880000
0	5944652102	4.246	46436256000
0	5948223143	4.247	837312328000
0	5951749531	4.248	56327128000
0	5955307707	4.249	892613928000
0	5958874367	4.25	70420232000
0	5962455799	4.251	48812936000
0	5966037972	4.252	47415152000
0	5969572740	4.253	893919256000
0	5973108297	4.254	57163912000
0	5976633460	4.255	34960728000
0	5980161679	4.256	1623058992000
0	5983694091	4.257	259731504000
0	5987228438	4.258	268605128000
0	5990726151	4.259	45234896000
0	5994251418	4.26	2606685216000
0	5997770707	4.261	109103456000
0	6001280611	4.262	3393592888000
0	6004825419	4.263	2673328272000
0	6008357218	4.264	2629316624000
0	6011880391	4.265	1845608944000
0	6015373339	4.266	3592195880000
0	6018877237	4.267	1959542096000
0	6022363093	4.268	1821333680000
0	6025865543	4.269	1848402528000
0	6029391875	4.27	1841597888000
0	6032929340	4.271	64327288000
0	6036439612	4.272	27294952000
0	6039929819	4.273	2623817368000
0	6043457127	4.274	39021496000
0	6046985645	4.275	1843412488000
0	6050505060	4.276	838615304000
0	6054043194	4.277	63996512000
0	6057589427	4.278	807310152000
0	6061147980	4.279	1828641648000
0	6064692603	4.28	1827161880000
0	6068235483	4.281	846111192000
0	6071738095	4.282	258980000000
0	6075223707	4.283	3380698776000
0	6078684370	4.284	55963584000
0	6082117759	4.285	31724984000
0	6085569529	4.286	476863376000
0	6089048654	4.287	2614649984000
0	6092500182	4.288	1831453208000
0	6095960637	4.289	64113192000
0	6099447247	4.29	822696360000
0	6102944737	4.291	1833043064000
0	6106451923	4.292	1831425984000
0	6109950917	4.293	1822782032000
0	6113445200	4.294	1611075224000
0	6116943306	4.295	839231360000
0	6120414704	4.296	1826901440000
0	6123879820	4.297	1840365176000
0	6127393845	4.298	42764408000
0	6130915860	4.299	47103272000
0	6134396359	4.3	52321240000
0	6137860154	4.301	1629002568000
0	6141361467	4.302	31350944000
0	6144857867	4.303	4615285616000
0	6148356576	4.304	54291712000
0	6151845207	4.305	251138656000
0	6155339573	4.306	1615119376000
0	6158853885	4.307	267780752000
0	6162379698	4.308	2043465352000
0	6165891207	4.309	2632440432000
0	6169416820	4.31	63512208000
0	6172951129	4.311	1842139704000
0	6176491474	4.312	1846714872000
0	6180003951	4.313	1843190896000
0	6183516234	4.314	26317864000
0	6187043874	4.315	2110729616000
0	6190574219	4.316	837880112000
0	6194134104	4.317	1833151336000
0	6197671242	4.318	1833669136000
0	6201185551	4.319	84060696000
0	6204661725	4.32	4400771736000
0	6208157669	4.321	1849631704000
0	6211644157	4.322	36817944000
0	6215124572	4.323	816822832000
0	6218618312	4.324	1834431096000
0	6222120355	4.325	831071768000
0	6225629307	4.326	73608808000
0	6229117775	4.327	823508384000
0	6232611424	4.328	44052792000
0	6236114771	4.329	2608082592000
0	6239608530	4.33	1076915336000
0	6243101193	4.331	847396880000
0	6246584460	4.332	1041147936000
0	6250049214	4.333	38662952000
0	6253508088	4.334	7227673808000
0	6256965721	4.335	1881927360000
0	6260425373	4.336	52596632000
0	6263906057	4.337	40623448000
0	6267362673	4.338	33616112000
0	6270792955	4.339	38153488000
0	6274206635	4.34	886789080000
0	6277654078	4.341	65181144000
0	6281127358	4.342	1818889448000
0	6284576476	4.343	59813448000
0	6288028667	4.344	2615425608000
0	6291493936	4.345	2037575208000
0	6294949206	4.346	255808288000
0	6298394972	4.347	77317552000
0	6301843848	4.348	1826857128000
0	6305300504	4.349	76464112000
0	6308745126	4.35	909245808000
0	6312183803	4.351	1835848456000
0	6315615053	4.352	1836785472000
0	6319045182	4.353	1847318840000
0	6322484331	4.354	1837238424000
0	6325911590	4.355	6181137320000
0	6329345150	4.356	266488208000
0	6332767350	4.357	28019208000
0	6336200181	4.358	1824166640000
0	6339652159	4.359	3608467064000
0	6343099083	4.36	33767896000
0	6346547996	4.361	57907136000
0	6349967730	4.362	52203464000
0	6353378707	4.363	53423048000
0	6356779766	4.364	1883329544000
0	6360179729	4.365	47983800000
0	6363594159	4.366	46597496000
0	6367015785	4.367	3618840720000
0	6370442909	4.368	1857335272000
0	6373875932	4.369	75004096000
0	6377291019	4.37	266771304000
0	6380694472	4.371	106130184000
0	6384118145	4.372	1903314760000
0	6387574782	4.373	2610811592000
0	6391018771	4.374	2617809064000
0	6394445237	4.375	3619883648000
0	6397877536	4.376	271569024000
0	6401311852	4.377	5176570840000
0	6404712827	4.378	834972128000
0	6408157236	4.379	53229728000
0	6411612797	4.38	1857973616000
0	6415068984	4.381	34824592000
0	6418504360	4.382	45889168000
0	6421942127	4.383	814969536000
0	6425381388	4.384	3610904968000
0	6428828798	4.385	2284475432000
0	6432283737	4.386	38589744000
0	6435728207	4.387	2691392264000
0	6439185937	4.388	271874136000
0	6442648083	4.389	825405504000
0	6446096173	4.39	254105480000
0	6449523618	4.391	820137304000
0	6452980303	4.392	1853100512000
0	6456447276	4.393	1821790640000
0	6459912551	4.394	1817904560000
0	6463364190	4.395	52533552000
0	6466831161	4.396	2059821288000
0	6470297069	4.397	25957296000
0	6473758197	4.398	1825903192000
0	6477239652	4.399	42598736000
0	6480745343	4.4	858423408000
0	6484212207	4.401	59062280000
0	6487680938	4.402	2042940376000
0	6491183318	4.403	1068079432000
0	6494687305	4.404	74405016000
0	6498143125	4.405	4616979920000
0	6501583266	4.406	2612821672000
0	6505032054	4.407	30286976000
0	6508468701	4.408	3607963248000
0	6511880355	4.409	882114784000
0	6515305840	4.41	289807880000
0	6518752496	4.411	1833325008000
0	6522190271	4.412	87260560000
0	6525608069	4.413	2612331864000
0	6529035553	4.414	1816309776000
0	6532461268	4.415	5602375248000
0	6535873500	4.416	2662933448000
0	6539285283	4.417	3396288944000
0	6542717318	4.418	2063256616000
0	6546158341	4.419	1900430592000
0	6549612802	4.42	1819442504000
0	6553085970	4.421	2598867448000
0	6556546778	4.422	863713896000
0	6560003004	4.423	1834510072000
0	6563446851	4.424	4184127440000
0	6566879049	4.425	1827149928000
0	6570324220	4.426	955120680000
0	6573786805	4.427	1052607968000
0	6577248639	4.428	3612821784000
0	6580690762	4.429	246578920000
0	6584152831	4.43	1118653176000
0	6587605058	4.431	108934224000
0	6591052390	4.432	900149984000
0	6594496665	4.433	69506768000
0	6597963019	4.434	3609861832000
0	6601416330	4.435	1839667200000
0	6604880644	4.436	54380008000
0	6608341732	4.437	831009480000
0	6611795165	4.438	1837245816000
0	6615258974	4.439	27657968000
0	6618719582	4.44	47950432000
0	6622181118	4.441	280125696000
0	6625626988	4.442	2619415704000
0	6629070461	4.443	252121048000
0	6632523371	4.444	51481040000
0	6635970815	4.445	3406592960000
0	6639417819	4.446	836118080000
0	6642888070	4.447	99751184000
0	6646350602	4.448	5186430056000
0	6649799785	4.449	856766784000
0	6653250420	4.45	5212987472000
0	6656692727	4.451	1829242808000
0	6660129822	4.452	46109960000
0	6663544013	4.453	878453072000
0	6666969561	4.454	2654642128000
0	6670406692	4.455	2061230736000
0	6673833838	4.456	1829114320000
0	6677281936	4.457	266726592000
0	6680697782	4.458	1063920560000
0	6684129964	4.459	3188047456000
0	6687591791	4.46	1815189032000
0	6691046229	4.461	38849408000
0	6694499484	4.462	5402811176000
0	6697934961	4.463	34739648000
0	6701380402	4.464	48201584000
0	6704812166	4.465	51093616000
0	6708240612	4.466	34727696000
0	6711646809	4.467	4180510824000
0	6715070145	4.468	2619433688000
0	6718516099	4.469	862781936000
0	6721932057	4.47	30931560000
0	6725376495	4.471	1893938704000
0	6728830999	4.472	678666976000
0	6732264521	4.473	58240440000
0	6735667484	4.474	32040744000
0	6739097529	4.475	2608636384000
0	6742527664	4.476	1042481552000
0	6745987946	4.477	364488032000
0	6749443112	4.478	1631506552000
0	6752904635	4.479	259179464000
0	6756337843	4.48	27920896000
0	6759773924	4.481	2621113416000
0	6763228843	4.482	246601528000
0	6766715454	4.483	3620344240000
0	6770208421	4.484	5185362936000
0	6773681191	4.485	39869000000
0	6777138024	4.486	38409408000
0	6780600745	4.487	46144464000
0	6784080422	4.488	1817786968000
0	6787558551	4.489	260439000000
0	6791043607	4.49	42537032000
0	6794508927	4.491	64857136000
0	6797978129	4.492	280895072000
0	6801438971	4.493	1904494240000
0	6804905302	4.494	495606240000
0	6808370332	4.495	830790808000
0	6811808008	4.496	39670680000
0	6815255162	4.497	844005824000
0	6818702599	4.498	1842507456000
0	6822126526	4.499	88757896000
0	6825593630	4.5	2840561824000
0	6829055487	4.501	1054962640000
0	6832500626	4.502	2282237680000
0	6835966802	4.503	67964600000
0	6839414629	4.504	3828864840000
0	6842857617	4.505	43584200000
0	6846307166	4.506	52345424000
0	6849751482	4.507	819870584000
0	6853210284	4.508	53580352000
0	6856664693	4.509	50412728000
0	6860114050	4.51	1830573720000
0	6863546600	4.511	2071368832000
0	6866985964	4.512	1848897976000
0	6870427470	4.513	833976352000
0	6873849807	4.514	3603102104000
0	6877286520	4.515	2031457072000
0	6880717020	4.516	1849783264000
0	6884149871	4.517	1833591536000
0	6887574596	4.518	832851688000
0	6890976631	4.519	44226488000
0	6894332910	4.52	4055405848000
0	6897691156	4.521	1609535336000
0	6901045992	4.522	3608886472000
0	6904387927	4.523	37281680000
0	6907745394	4.524	82604848000
0	6911107353	4.525	2044451528000
0	6914496183	4.526	892763776000
0	6917853347	4.527	3592679920000
0	6921199322	4.528	5399305008000
0	6924539870	4.529	828973112000
0	6927901270	4.53	1825081984000
0	6931289939	4.531	812061736000
0	6934652828	4.532	1832825328000
0	6938037144	4.533	270375592000
0	6941411066	4.534	1918383608000
0	6944776393	4.535	38466192000
0	6948164099	4.536	258392288000
0	6951561409	4.537	53679680000
0	6954987698	4.538	1825992416000
0	6958380477	4.539	3645448080000
0	6961768088	4.54	1833296192000
0	6965153755	4.541	1821704304000
0	6968553114	4.542	2667884008000
0	6971946350	4.543	866093680000
0	6975350253	4.544	41486112000
0	6978753350	4.545	824553664000
0	6982146149	4.546	2614435312000
0	6985526020	4.547	850436496000
0	6988919359	4.548	51147192000
0	6992293241	4.549	1862286144000
0	6995690793	4.55	824079264000
0	6999106186	4.551	3620976224000
0	7002505045	4.552	2033714976000
0	7005893041	4.553	2024617280000
0	7009295304	4.554	835532128000
0	7012684198	4.555	3192157520000
0	7016074073	4.556	45529320000
0	7019477038	4.557	260320224000
0	7022880888	4.558	283369336000
0	7026289850	4.559	4405743056000
0	7029690482	4.56	1814604720000
0	7033076394	4.561	96620384000
0	7036443894	4.562	873515280000
0	7039793585	4.563	89158424000
0	7043145816	4.564	2609618344000
0	7046494853	4.565	2610873712000
0	7049845849	4.566	2609861464000
0	7053207360	4.567	4406580648000
0	7056560601	4.568	30353352000
0	7059904064	4.569	5978187152000
0	7063262541	4.57	1842612736000
0	7066640451	4.571	3599043800000
0	7069997713	4.572	2058222192000
0	7073371803	4.573	1614029112000
0	7076741776	4.574	832601768000
0	7080125397	4.575	50113376000
0	7083482353	4.576	32448696000
0	7086876892	4.577	844188792000
0	7090273277	4.578	3400166496000
0	7093687270	4.579	830387688000
0	7097105864	4.58	1878174632000
0	7100515203	4.581	878923472000
0	7103895759	4.582	1843124560000
0	7107280968	4.583	1821167072000
0	7110651311	4.584	100332088000
0	7114012584	4.585	6201717280000
0	7117382455	4.586	79074032000
0	7120750118	4.587	1836559096000
0	7124133503	4.588	65536376000
0	7127492459	4.589	5394728584000
0	7130847578	4.59	41609976000
0	7134200145	4.591	31328000000
0	7137599934	4.592	41218800000
0	7141010331	4.593	1824524176000
0	7144422219	4.594	2611489448000
0	7147806750	4.595	2611366296000
0	7151198027	4.596	822418192000
0	7154563042	4.597	2644168480000
0	7157919027	4.598	44016112000
0	7161310709	4.599	4392240048000
0	7164659383	4.6	31534744000
0	7168028342	4.601	5424799840000
0	7171406432	4.602	252581792000
0	7174821857	4.603	4426740880000
0	7178217724	4.604	827275800000
0	7181598246	4.605	3460242992000
0	7184979160	4.606	110937032000
0	7188378951	4.607	93674968000
0	7191757566	4.608	825182072000
0	7195144355	4.609	252520832000
0	7198548343	4.61	1833550656000
0	7201941832	4.611	3605435576000
0	7205320011	4.612	1825127888000
0	7208701361	4.613	43904208000
0	7212113687	4.614	35872456000
0	7215512711	4.615	1638888704000
0	7218899726	4.616	482236368000
0	7222293575	4.617	843222176000
0	7225690530	4.618	821338896000
0	7229081971	4.619	3594917984000
0	7232486031	4.62	4400958320000
0	7235904294	4.621	4395825504000
0	7239361904	4.622	54568016000
0	7242803827	4.623	248252832000
0	7246249491	4.624	7176622488000
0	7249698730	4.625	1046684024000
0	7253178309	4.626	818759440000
0	7256634448	4.627	1822738800000
0	7260062392	4.628	266709904000
0	7263463048	4.629	1831882344000
0	7266856528	4.63	35140552000
0	7270249070	4.631	279794672000
0	7273652981	4.632	1623305408000
0	7277038615	4.633	835601280000
0	7280402358	4.634	1833387288000
0	7283791768	4.635	1824009864000
0	7287188804	4.636	1675654632000
0	7290562479	4.637	827575584000
0	7293953993	4.638	2071723312000
0	7297336813	4.639	55573880000
0	7300725997	4.64	3398569608000
0	7304119676	4.641	2078436752000
0	7307510439	4.642	1811868344000
0	7310902873	4.643	466360032000
0	7314283513	4.644	1835685640000
0	7317694187	4.645	59568688000
0	7321087145	4.646	1811160016000
0	7324482995	4.647	841727912000
0	7327880057	4.648	2610242968000
0	7331254741	4.649	825822344000
0	7334609062	4.65	34621712000
0	7337982929	4.651	1058578576000
0	7341344361	4.652	57715984000
0	7344726721	4.653	1909710760000
0	7348118969	4.654	1831842336000
0	7351483526	4.655	543469768000
0	7354881927	4.656	841681104000
0	7358267669	4.657	28429048000
0	7361670022	4.658	2643389048000
0	7365067474	4.659	852603872000
0	7368460038	4.66	51132560000
0	7371834086	4.661	255983512000
0	7375214271	4.662	2614019296000
0	7378618509	4.663	2620479352000
0	7382024701	4.664	33762568000
0	7385428041	4.665	48709416000
0	7388853161	4.666	835527256000
0	7392286101	4.667	264291848000
0	7395713644	4.668	5600423264000
0	7399120077	4.669	39239360000
0	7402521037	4.67	3604482360000
0	7405925018	4.671	2836680504000
0	7409342793	4.672	62458624000
0	7412756086	4.673	58065296000
0	7416155252	4.674	1827785136000
0	7419550214	4.675	39039072000
0	7422917662	4.676	3602806448000
0	7426296632	4.677	53516552000
0	7429678088	4.678	5616122688000
0	7433087309	4.679	847376784000
0	7436505509	4.68	1830978344000
0	7439878265	4.681	40238936000
0	7443272882	4.682	3397603992000
0	7446663159	4.683	38105624000
0	7450051390	4.684	252377752000
0	7453421029	4.685	836891912000
0	7456788615	4.686	64684280000
0	7460162873	4.687	2601461472000
0	7463536838	4.688	3618250352000
0	7466917453	4.689	44131568000
0	7470271137	4.69	1820421664000
0	7473643756	4.691	63594504000
0	7477008160	4.692	1633473048000
0	7480374964	4.693	821342232000
0	7483728290	4.694	3607130712000
0	7487106375	4.695	1824779360000
0	7490502314	4.696	99951480000
0	7493899342	4.697	3828864848000
0	7497291250	4.698	830913736000
0	7500681883	4.699	1673484176000
0	7504089270	4.7	55201048000
0	7507489076	4.701	50252488000
0	7510914916	4.702	3856439496000
0	7514344205	4.703	286688888000
0	7517778924	4.704	1842857088000
0	7521205686	4.705	52054824000
0	7524637586	4.706	1835217312000
0	7528096328	4.707	1823749280000
0	7531563161	4.708	4476976800000
0	7535054175	4.709	1859230448000
0	7538542896	4.71	51054224000
0	7542021614	4.711	2613015352000
0	7545471138	4.712	3607433848000
0	7548912173	4.713	38062992000
0	7552359961	4.714	4606696512000
0	7555821473	4.715	1847531968000
0	7559263984	4.716	3398571464000
0	7562695215	4.717	29999816000
0	7566127722	4.718	1622089368000
0	7569563242	4.719	1837879096000
0	7572992935	4.72	44323168000
0	7576437692	4.721	1819984952000
0	7579882870	4.722	475856336000
0	7583334881	4.723	35150568000
0	7586771664	4.724	61101960000
0	7590235117	4.725	2421922984000
0	7593701591	4.726	2820141104000
0	7597189020	4.727	2427168680000
0	7600648584	4.728	44333952000
0	7604107457	4.729	1822114560000
0	7607576157	4.73	1826461936000
0	7611059013	4.731	847884720000
0	7614519691	4.732	39094904000
0	7617987092	4.733	1823936840000
0	7621453873	4.734	1833472296000
0	7624948673	4.735	3617713488000
0	7628397126	4.736	4393152736000
0	7631874464	4.737	1857169384000
0	7635348122	4.738	1635326000000
0	7638841539	4.739	6475567632000
0	7642315740	4.74	830493152000
0	7645804931	4.741	3414047040000
0	7649293046	4.742	2600819816000
0	7652767801	4.743	1817647104000
0	7656233244	4.744	40913680000
0	7659666386	4.745	3603250784000
0	7663120966	4.746	1832789640000
0	7666559280	4.747	3619224176000
0	7670016992	4.748	3631768048000
0	7673481154	4.749	36679328000
0	7676960296	4.75	27175864000
0	7680448027	4.751	319850088000
0	7683898038	4.752	40937424000
0	7687336075	4.753	1824797336000
0	7690759493	4.754	1843735712000
0	7694186859	4.755	89595904000
0	7697657150	4.756	275732696000
0	7701131966	4.757	1825246248000
0	7704599434	4.758	3600756360000
0	7708054020	4.759	2049083928000
0	7711532584	4.76	2050523656000
0	7715019140	4.761	4400458800000
0	7718507125	4.762	834715800000
0	7721973065	4.763	40310848000
0	7725426179	4.764	2042372264000
0	7728903466	4.765	31374528000
0	7732342287	4.766	3835507496000
0	7735801031	4.767	2036931824000
0	7739236923	4.768	41886944000
0	7742695581	4.769	1850721288000
0	7746144016	4.77	835892720000
0	7749581819	4.771	3616276064000
0	7753033975	4.772	836820592000
0	7756461832	4.773	51610104000
0	7759900942	4.774	2603207800000
0	7763310166	4.775	2608377464000
0	7766745332	4.776	903340960000
0	7770160132	4.777	2635938056000
0	7773560019	4.778	1827935384000
0	7776962863	4.779	2622030784000
0	7780378865	4.78	51929944000
0	7783785748	4.781	3057692704000
0	7787223520	4.782	6394146472000
0	7790653389	4.783	2618160352000
0	7794089563	4.784	289628688000
0	7797510862	4.785	3627767080000
0	7800935001	4.786	830357080000
0	7804342489	4.787	41660352000
0	7807771935	4.788	49733944000
0	7811230325	4.789	92681688000
0	7814676740	4.79	39578008000
0	7818120772	4.791	5196664056000
0	7821582926	4.792	42725680000
0	7825051740	4.793	126517640000
0	7828483124	4.794	2826994272000
0	7831891407	4.795	42851688000
0	7835301075	4.796	2628750520000
0	7838717020	4.797	260652512000
0	7842114332	4.798	2043735984000
0	7845513654	4.799	2605710008000
0	7848921186	4.8	836589896000
0	7852328844	4.801	28844200000
0	7855734243	4.802	826832568000
0	7859133199	4.803	266935760000
0	7862544949	4.804	4403754544000
0	7865972979	4.805	1815878152000
0	7869402726	4.806	1825121832000
0	7872832692	4.807	1885623704000
0	7876297029	4.808	2630052888000
0	7879755736	4.809	2649495984000
0	7883194021	4.81	2626075432000
0	7886605375	4.811	832120640000
0	7890023812	4.812	1837020448000
0	7893454027	4.813	35199208000
0	7896881903	4.814	320768416000
0	7900326344	4.815	1633099176000
0	7903770266	4.816	844603016000
0	7907193152	4.817	2623604992000
0	7910633584	4.818	50594248000
0	7914052937	4.819	124006760000
0	7917468574	4.82	3421916720000
0	7920868346	4.821	254816968000
0	7924278047	4.822	50150536000
0	7927667325	4.823	1844479136000
0	7931069777	4.824	1050427560000
0	7934487188	4.825	2608722440000
0	7937884980	4.826	43702088000
0	7941277960	4.827	32506440000
0	7944669911	4.828	2044383344000
0	7948080212	4.829	41641008000
0	7951482509	4.83	51508272000
0	7954876110	4.831	2050028560000
0	7958288797	4.832	1895162568000
0	7961684636	4.833	27326280000
0	7965059636	4.834	2673933960000
0	7968476875	4.835	3621260320000
0	7971905917	4.836	117648136000
0	7975339544	4.837	820865496000
0	7978760118	4.838	4041621968000
0	7982182898	4.839	2046532744000
0	7985602497	4.84	94450496000
0	7989047928	4.841	50708960000
0	7992470436	4.842	820016040000
0	7995886695	4.843	1810088280000
0	7999351892	4.844	2370077368000
0	8002800067	4.845	1810906616000
0	8006250963	4.846	44495304000
0	8009725211	4.847	1824958224000
0	8013169538	4.848	275257752000
0	8016638051	4.849	43137552000
0	8020090154	4.85	23569536000
0	8023525250	4.851	63523536000
0	8026939670	4.852	159016664000
0	8030370129	4.853	277160152000
0	8033812562	4.854	1861303152000
0	8037250020	4.855	53194080000
0	8040680643	4.856	3407120784000
0	8044112807	4.857	4416963552000
0	8047554111	4.858	27003272000
0	8050979294	4.859	3038858800000
0	8054396347	4.86	1893962744000
0	8057806946	4.861	1823728864000
0	8061235661	4.862	110147008000
0	8064701704	4.863	1829598792000
0	8068172105	4.864	1819580280000
0	8071633393	4.865	2621086360000
0	8075074327	4.866	3613384424000
0	8078521205	4.867	33976688000
0	8081988522	4.868	7414396480000
0	8085472145	4.869	2033755696000
0	8088932444	4.87	2053795512000
0	8092390930	4.871	1818005528000
0	8095872753	4.872	261825088000
0	8099350646	4.873	65428680000
0	8102804729	4.874	43340344000
0	8106248710	4.875	1816378072000
0	8109687386	4.876	2613168888000
0	8113140096	4.877	2035766176000
0	8116590625	4.878	40795528000
0	8119992739	4.879	36793584000
0	8123397413	4.88	3617611208000
0	8126802542	4.881	854326064000
0	8130220967	4.882	2608658216000
0	8133659829	4.883	72584408000
0	8137099784	4.884	2615433304000
0	8140549691	4.885	56126368000
0	8144010437	4.886	43082456000
0	8147471155	4.887	2611381176000
0	8150908187	4.888	319120656000
0	8154349576	4.889	7991476144000
0	8157795967	4.89	2332411248000
0	8161251446	4.891	824993448000
0	8164703914	4.892	1815531416000
0	8168141120	4.893	51385232000
0	8171598984	4.894	107775488000
0	8175044178	4.895	1832308520000
0	8178492951	4.896	274817528000
0	8181944857	4.897	2906892968000
0	8185383929	4.898	857725000000
0	8188829931	4.899	1803666968000
0	8192277435	4.9	75548008000
0	8195750418	4.901	1893204560000
0	8199194221	4.902	1818862440000
0	8202658057	4.903	846056416000
0	8206121042	4.904	1827020352000
0	8209587028	4.905	55619136000
0	8213054507	4.906	2696941464000
0	8216509947	4.907	839214304000
0	8219948918	4.908	2058941304000
0	8223396377	4.909	5180399368000
0	8226817288	4.91	32795296000
0	8230238243	4.911	33301304000
0	8233661202	4.912	2615666344000
0	8237073790	4.913	2633215856000
0	8240509291	4.914	3600707776000
0	8243940662	4.915	1080117368000
0	8247367723	4.916	1815065792000
0	8250769350	4.917	6175893056000
0	8254179149	4.918	4451269464000
0	8257594752	4.919	86284736000
0	8260991401	4.92	815968536000
0	8264385177	4.921	1069616048000
0	8267810017	4.922	836452304000
0	8271231207	4.923	37746008000
0	8274650063	4.924	271407888000
0	8278059650	4.925	28920712000
0	8281478783	4.926	3639010648000
0	8284872461	4.927	29548096000
0	8288293639	4.928	32549096000
0	8291748469	4.929	2053076584000
0	8295203080	4.93	251946720000
0	8298635072	4.931	2033112768000
0	8302104835	4.932	55255552000
0	8305584013	4.933	1647235320000
0	8309090198	4.934	1085678064000
0	8312594463	4.935	60320896000
0	8316101598	4.936	26755752000
0	8319607048	4.937	57199304000
0	8323089056	4.938	40440360000
0	8326585046	4.939	339528728000
0	8330071333	4.94	5405772624000
0	8333517688	4.941	70486504000
0	8336930226	4.942	32595248000
0	8340333145	4.943	266196368000
0	8343738073	4.944	3866505304000
0	8347152303	4.945	265359992000
0	8350564373	4.946	2834132320000
0	8353965714	4.947	2623763352000
0	8357358068	4.948	1824820064000
0	8360757474	4.949	40726456000
0	8364143074	4.95	60872768000
0	8367519946	4.951	30497496000
0	8370892618	4.952	1823985600000
0	8374243452	4.953	42138856000
0	8377582937	4.954	42460880000
0	8380924989	4.955	1834233864000
0	8384253201	4.956	29297480000
0	8387586430	4.957	42726112000
0	8390929282	4.958	2661639904000
0	8394297033	4.959	5203509136000
0	8397654899	4.96	60388144000
0	8401011410	4.961	896230664000
0	8404377536	4.962	1817582696000
0	8407753548	4.963	50938448000
0	8411134079	4.964	3400784680000
0	8414517588	4.965	58021712000
0	8417928680	4.966	48109736000
0	8421331094	4.967	1821114552000
0	8424710724	4.968	51175408000
0	8428111229	4.969	1881081752000
0	8431539166	4.97	1862767904000
0	8434918595	4.971	40651064000
0	8438275826	4.972	31383096000
0	8441640591	4.973	126662184000
0	8444990291	4.974	50712504000
0	8448360495	4.975	3609723584000
0	8451742674	4.976	123442352000
0	8455143428	4.977	2840683360000
0	8458519681	4.978	265047696000
0	8461922719	4.979	1850362000000
0	8465318840	4.98	1902137056000
0	8468723863	4.981	42062720000
0	8472118885	4.982	1828309352000
0	8475514296	4.983	30530696000
0	8478920849	4.984	1842046840000
0	8482325660	4.985	822734144000
0	8485701151	4.986	270870776000
0	8489076726	4.987	824514152000
0	8492453482	4.988	850903984000
0	8495834323	4.989	3408053672000
0	8499204810	4.99	50906096000
0	8502573066	4.991	273220016000
0	8505936017	4.992	33297120000
0	8509331041	4.993	1849638856000
0	8512722447	4.994	1836093640000
0	8516113006	4.995	47889824000
0	8519498301	4.996	21776360000
0	8522871987	4.997	837905760000
0	8526260138	4.998	1826941664000
0	8529637915	4.999	832999072000
0	8533023446	5	4458601816000
0	8536419734	5.001	2621513424000
0	8539810375	5.002	1839196960000
0	8543161651	5.003	21732056000
0	8546561250	5.004	61223256000
0	8550004419	5.005	827065600000
0	8553441987	5.006	263343488000
0	8556884893	5.007	1833256848000
0	8560345240	5.008	325978792000
0	8563819792	5.009	1682201384000
0	8567279321	5.01	2035088600000
0	8570747640	5.011	1822543912000
0	8574215720	5.012	263001840000
0	8577669360	5.013	1870582944000
0	8581100236	5.014	1822953176000
0	8584553904	5.015	263255728000
0	8587991231	5.016	1828451576000
0	8591454906	5.017	43261848000
0	8594936548	5.018	47566184000
0	8598425823	5.019	33820824000
0	8601909217	5.02	1896977704000
0	8605387003	5.021	1841616648000
0	8608872309	5.022	1830385568000
0	8612361744	5.023	1848796320000
0	8615838146	5.024	886509848000
0	8619301409	5.025	1609525392000
0	8622796167	5.026	478750936000
0	8626260451	5.027	245379376000
0	8629734236	5.028	1874011640000
0	8633209590	5.029	38732256000
0	8636654395	5.03	50760360000
0	8640112690	5.031	28548896000
0	8643566646	5.032	2636530656000
0	8646999389	5.033	1822772056000
0	8650428980	5.034	45806184000
0	8653845230	5.035	94020720000
0	8657293165	5.036	44717912000
0	8660704560	5.037	128881296000
0	8664136587	5.038	3614770896000
0	8667586923	5.039	272578120000
0	8671020672	5.04	32070192000
0	8674439104	5.041	249218480000
0	8677867160	5.042	829934208000
0	8681298627	5.043	844710896000
0	8684714015	5.044	39692368000
0	8688140370	5.045	110284576000
0	8691565192	5.046	1048504440000
0	8694985946	5.047	270315712000
0	8698426313	5.048	2619638016000
0	8701875200	5.049	143152288000
0	8705290864	5.05	1891454584000
0	8708679400	5.051	496674216000
0	8712086289	5.052	51219928000
0	8715482756	5.053	30973680000
0	8718876958	5.054	3625033296000
0	8722263963	5.055	42131624000
0	8725642704	5.056	108825856000
0	8729050950	5.057	1827150416000
0	8732461974	5.058	1817200408000
0	8735840343	5.059	1825544296000
0	8739225759	5.06	58667608000
0	8742623403	5.061	829945136000
0	8746002137	5.062	2048849896000
0	8749393486	5.063	1952248376000
0	8752798231	5.064	2673867800000
0	8756182361	5.065	3805968864000
0	8759561630	5.066	69724920000
0	8762925372	5.067	2616792280000
0	8766303092	5.068	84478432000
0	8769686768	5.069	840297608000
0	8773096641	5.07	888472424000
0	8776488253	5.071	838064512000
0	8779891674	5.072	2690078248000
0	8783330055	5.073	2626830768000
0	8786753095	5.074	57915848000
0	8790167655	5.075	3626358928000
0	8793557248	5.076	69080304000
0	8796970628	5.077	3426940656000
0	8800398376	5.078	1833690368000
0	8803836340	5.079	1091545544000
0	8807277310	5.08	1835556336000
0	8810699136	5.081	47554832000
0	8814120214	5.082	2619765536000
0	8817546554	5.083	901001856000
0	8820993246	5.084	836847232000
0	8824411582	5.085	43976840000
0	8827816981	5.086	2618312568000
0	8831232386	5.087	2614383000000
0	8834658437	5.088	2614805616000
0	8838063638	5.089	314828992000
0	8841483314	5.09	2832384912000
0	8844896257	5.091	2685294944000
0	8848317261	5.092	41926240000
0	8851749409	5.093	2615910728000
0	8855171215	5.094	37503672000
0	8858595597	5.095	38692496000
0	8862063082	5.096	104212104000
0	8865519076	5.097	1825217624000
0	8868968643	5.098	1845302280000
0	8872411970	5.099	3617527736000
0	8875831990	5.1	835470872000
0	8879264080	5.101	876253248000
0	8882702268	5.102	2055448528000
0	8886123192	5.103	1823835744000
0	8889538408	5.104	34605984000
0	8892986832	5.105	831169816000
0	8896440062	5.106	1290468808000
0	8899891979	5.107	5191968432000
0	8903340382	5.108	4414664768000
0	8906788604	5.109	87153504000
0	8910218422	5.11	2031293032000
0	8913651243	5.111	33943976000
0	8917061877	5.112	36270032000
0	8920464338	5.113	7165944640000
0	8923881968	5.114	3612430608000
0	8927308822	5.115	91143584000
0	8930710989	5.116	4411560856000
0	8934099201	5.117	2627983680000
0	8937505517	5.118	885483952000
0	8940907673	5.119	94162656000
0	8944305801	5.12	1850392592000
0	8947695311	5.121	1817564696000
0	8951074430	5.122	1891137600000
0	8954458436	5.123	1835932992000
0	8957853514	5.124	850518936000
0	8961255075	5.125	52885464000
0	8964655081	5.126	4637877680000
0	8968060098	5.127	41769648000
0	8971460136	5.128	1836800192000
0	8974847258	5.129	49568928000
0	8978243128	5.13	822326040000
0	8981658002	5.131	2070044704000
0	8985090740	5.132	2060226360000
0	8988515255	5.133	1047217536000
0	8991944867	5.134	265528160000
0	8995410334	5.135	291526216000
0	8998898796	5.136	3835141344000
0	9002369524	5.137	828523488000
0	9005818096	5.138	2106275864000
0	9009251218	5.139	263505312000
0	9012666768	5.14	65095576000
0	9016089415	5.141	2047771976000
0	9019482139	5.142	1816943872000
0	9022893535	5.143	276213048000
0	9026308462	5.144	850453592000
0	9029749692	5.145	4692690208000
0	9033193062	5.146	50982000000
0	9036658592	5.147	37560064000
0	9040148173	5.148	46928512000
0	9043656485	5.149	828504240000
0	9047134334	5.15	3607457688000
0	9050607490	5.151	1620967464000
0	9054079647	5.152	1817434240000
0	9057538638	5.153	1830267432000
0	9060983715	5.154	833332784000
0	9064419539	5.155	49270024000
0	9067887196	5.156	3616520640000
0	9071357992	5.157	2038886768000
0	9074825737	5.158	2602062624000
0	9078277318	5.159	2874709984000
0	9081713472	5.16	2847249016000
0	9085146740	5.161	1060837816000
0	9088583538	5.162	38875928000
0	9092026758	5.163	1060048072000
0	9095492018	5.164	76896856000
0	9098976558	5.165	48343088000
0	9102446816	5.166	58751464000
0	9105939681	5.167	130411352000
0	9109418506	5.168	56264800000
0	9112917512	5.169	2642984232000
0	9116444222	5.17	1843522416000
0	9119977664	5.171	2821889184000
0	9123506788	5.172	1836543264000
0	9127016214	5.173	1833822144000
0	9130548344	5.174	5983020888000
0	9134049869	5.175	45891776000
0	9137555653	5.176	838939104000
0	9141042388	5.177	823511160000
0	9144540043	5.178	3608102648000
0	9148034057	5.179	3469887008000
0	9151521326	5.18	32091840000
0	9154978037	5.181	5606065328000
0	9158460241	5.182	2627669688000
0	9161926944	5.183	35558432000
0	9165410272	5.184	1614346376000
0	9168867846	5.185	1817692400000
0	9172338955	5.186	47799880000
0	9175795370	5.187	1830529592000
0	9179240794	5.188	834740728000
0	9182686292	5.189	60332792000
0	9186147972	5.19	863933296000
0	9189591388	5.191	2597269400000
0	9193071732	5.192	848328888000
0	9196540522	5.193	1865561088000
0	9199981949	5.194	497880568000
0	9203425762	5.195	1844248976000
0	9206851655	5.196	25210520000
0	9210263872	5.197	108630400000
0	9213700405	5.198	61431672000
0	9217154619	5.199	2053647512000
0	9220585262	5.2	2051503736000
0	9224006183	5.201	3619190504000
0	9227421318	5.202	2639330592000
0	9230846088	5.203	832353056000
0	9234243979	5.204	43489480000
0	9237617718	5.205	33749168000
0	9240985178	5.206	49650712000
0	9244373963	5.207	1809857616000
0	9247757131	5.208	1832448136000
0	9251147078	5.209	2033237808000
0	9254526202	5.21	47185352000
0	9257884422	5.211	42302880000
0	9261218292	5.212	93793816000
0	9264559957	5.213	70545552000
0	9267910570	5.214	1845225256000
0	9271268714	5.215	3606244432000
0	9274613468	5.216	2838309424000
0	9277946059	5.217	23405512000
0	9281275288	5.218	2826283880000
0	9284606400	5.219	1829022624000
0	9287960033	5.22	61945816000
0	9291300330	5.221	884432168000
0	9294647846	5.222	1810149312000
0	9298015624	5.223	264325400000
0	9301389007	5.224	1830225680000
0	9304776317	5.225	256287736000
0	9308170641	5.226	1853789568000
0	9311563022	5.227	26916104000
0	9314933048	5.228	50698472000
0	9318294172	5.229	3062414880000
0	9321626446	5.23	269583976000
0	9324994393	5.231	899423184000
0	9328364238	5.232	837918216000
0	9331737543	5.233	36615976000
0	9335092024	5.234	2026817440000
0	9338437659	5.235	40510840000
0	9341785458	5.236	846998192000
0	9345151213	5.237	90356784000
0	9348541247	5.238	255823000000
0	9351925026	5.239	1847498368000
0	9355300476	5.24	56942136000
0	9358651652	5.241	19653912000
0	9362030966	5.242	3851590496000
0	9365415709	5.243	1846668792000
0	9368798436	5.244	2666930664000
0	9372163320	5.245	1633813640000
0	9375528652	5.246	2048133488000
0	9378876092	5.247	846277792000
0	9382253997	5.248	1836813504000
0	9385632324	5.249	830920224000
0	9389004392	5.25	2049047696000
0	9392381833	5.251	1810811656000
0	9395761963	5.252	42650072000
0	9399176533	5.253	49061800000
0	9402604141	5.254	2640614800000
0	9406054088	5.255	67175560000
0	9409498858	5.256	827397016000
0	9412910444	5.257	827690552000
0	9416333311	5.258	3841108896000
0	9419775255	5.259	1891151984000
0	9423225703	5.26	1825519448000
0	9426667690	5.261	33431504000
0	9430103947	5.262	2605741480000
0	9433569073	5.263	817304656000
0	9437047543	5.264	1819739840000
0	9440531776	5.265	106205528000
0	9444015091	5.266	41042832000
0	9447458984	5.267	59062008000
0	9450915326	5.268	43833216000
0	9454344982	5.269	48934576000
0	9457795780	5.27	31405192000
0	9461245172	5.271	4390046432000
0	9464680935	5.272	3630410888000
0	9468088794	5.273	52333976000
0	9471507059	5.274	917731824000
0	9474942174	5.275	43037440000
0	9478350431	5.276	819043424000
0	9481783306	5.277	2398619328000
0	9485208096	5.278	50338400000
0	9488620631	5.279	2624020096000
0	9492082749	5.28	1827617208000
0	9495548106	5.281	1067132040000
0	9498994607	5.282	1817221120000
0	9502463159	5.283	3628730800000
0	9505924591	5.284	246034392000
0	9509386010	5.285	58368744000
0	9512872851	5.286	2603925784000
0	9516330537	5.287	23043320000
0	9519790985	5.288	2120542704000
0	9523273355	5.289	167123080000
0	9526750375	5.29	4395201456000
0	9530218995	5.291	50166464000
0	9533667087	5.292	2608008336000
0	9537132134	5.293	2851426984000
0	9540593796	5.294	2041017824000
0	9544066755	5.295	1060404584000
0	9547510302	5.296	2043253168000
0	9550920953	5.297	56876024000
0	9554358570	5.298	1675433248000
0	9557760626	5.299	1824703184000
0	9561165366	5.3	67656232000
0	9564582069	5.301	2621893672000
0	9567984071	5.302	28423792000
0	9571372257	5.303	45931232000
0	9574763495	5.304	62004424000
0	9578148861	5.305	1882252968000
0	9581541810	5.306	6419243896000
0	9584932569	5.307	3601180136000
0	9588316452	5.308	1825372760000
0	9591718400	5.309	340839312000
0	9595116293	5.31	1820900272000
0	9598528216	5.311	28756400000
0	9601911023	5.312	3396518080000
0	9605313893	5.313	1050107704000
0	9608743442	5.314	1630348736000
0	9612161679	5.315	29408712000
0	9615565471	5.316	890187400000
0	9618973920	5.317	4409243424000
0	9622368957	5.318	20384072000
0	9625757918	5.319	29803232000
0	9629160580	5.32	837810816000
0	9632580455	5.321	2030924656000
0	9636008878	5.322	95521000000
0	9639465365	5.323	4400457520000
0	9642907098	5.324	1827124264000
0	9646349611	5.325	1850394400000
0	9649791457	5.326	2608862680000
0	9653205723	5.327	1824853016000
0	9656630130	5.328	38526648000
0	9660075168	5.329	3470648992000
0	9663533603	5.33	1825116576000
0	9666983044	5.331	1828182744000
0	9670402454	5.332	2674746288000
0	9673837680	5.333	2620755376000
0	9677259845	5.334	2123263296000
0	9680717591	5.335	2626527616000
0	9684190622	5.336	1830991176000
0	9687653822	5.337	824342232000
0	9691149634	5.338	829873768000
0	9694630376	5.339	27382568000
0	9698118944	5.34	1620603224000
0	9701620076	5.341	899085896000
0	9705107971	5.342	26938752000
0	9708565101	5.343	84893328000
0	9712038393	5.344	1830693072000
0	9715521438	5.345	2040410808000
[...]
4	23893889311	9.416	1052376880000
4	23897503231	9.417	1046308992000
4	23901112147	9.418	2250544984000
4	23904714328	9.419	1819832320000
4	23908319509	9.42	267111136000
4	23911940998	9.421	2052814584000
4	23915545058	9.422	1611918448000
4	23919153264	9.423	3604224144000
4	23922759259	9.424	3821356840000
4	23926394049	9.425	1823522328000
4	23930055384	9.426	48232584000
4	23933708608	9.427	3630922320000
4	23937361035	9.428	2404250304000
4	23941016534	9.429	43185576000
4	23944678639	9.43	5454653744000
4	23948306301	9.431	3613520344000
4	23951927268	9.432	105304024000
4	23955552594	9.433	245805832000
4	23959171582	9.434	62296208000
4	23962806644	9.435	2615384272000
4	23966462921	9.436	841016904000
4	23970115454	9.437	838835688000
4	23973755417	9.438	822462040000
4	23977405674	9.439	838850904000
4	23981051571	9.44	50537344000
4	23984670530	9.441	1295488384000
4	23988293476	9.442	44944648000
4	23991924078	9.443	330105304000
4	23995581626	9.444	2069381232000
4	23999236617	9.445	275785304000
4	24002894803	9.446	814362280000
4	24006564703	9.447	2601560664000
4	24010217769	9.448	45481864000
4	24013884026	9.449	2842721504000
4	24017528082	9.45	2649640808000
4	24021197937	9.451	326604416000
4	24024854839	9.452	300489104000
4	24028512874	9.453	2651029096000
4	24032165074	9.454	39054792000
4	24035790031	9.455	1814677088000
4	24039389383	9.456	37339392000
4	24043003918	9.457	2627351528000
4	24046621119	9.458	1837526696000
4	24050245725	9.459	1843317848000
4	24053893540	9.46	141053840000
4	24057534047	9.461	2640876152000
4	24061204067	9.462	1624404968000
4	24064838836	9.463	1971276592000
4	24068484870	9.464	54757984000
4	24072127577	9.465	3610063760000
4	24075759370	9.466	2102466216000
4	24079366617	9.467	848590936000
4	24082961870	9.468	37603248000
4	24086582455	9.469	2636420808000
4	24090195814	9.47	1830757288000
4	24093817003	9.471	1848983368000
4	24097439552	9.472	4416695856000
4	24101070493	9.473	1832844216000
4	24104687339	9.474	2811838296000
4	24108292409	9.475	542927808000
4	24111920173	9.476	2929441216000
4	24115531477	9.477	1815543368000
4	24119134431	9.478	1091628576000
4	24122778967	9.479	1628090800000
4	24126395320	9.48	1633190304000
4	24130019707	9.481	845225864000
4	24133646100	9.482	4042173512000
4	24137293278	9.483	868309504000
4	24140928275	9.484	828899056000
4	24144534700	9.485	1614188520000
4	24148139958	9.486	5398820640000
4	24151756194	9.487	1834104072000
4	24155350312	9.488	47982560000
4	24158933386	9.489	828746048000
4	24162535144	9.49	890999136000
4	24166123704	9.491	254611880000
4	24169714182	9.492	2046457696000
4	24173301879	9.493	3609607808000
4	24176852832	9.494	4383542576000
4	24180410591	9.495	2900938968000
4	24183972515	9.496	852347216000
4	24187538246	9.497	71929808000
4	24191075396	9.498	1662473736000
4	24194634057	9.499	1079390832000
4	24198194693	9.5	2620872088000
4	24201749097	9.501	3620470736000
4	24205305223	9.502	39008280000
4	24208856096	9.503	43964744000
4	24212399409	9.504	57391760000
4	24215962631	9.505	53947144000
4	24219528987	9.506	297069896000
4	24223109382	9.507	1851468576000
4	24226675138	9.508	1823859112000
4	24230215283	9.509	4403256992000
4	24233734007	9.51	249024944000
4	24237294011	9.511	831220096000
4	24240867172	9.512	481418512000
4	24244434911	9.513	43690632000
4	24248026815	9.514	34452744000
4	24251596884	9.515	257668392000
4	24255137830	9.516	5391807944000
4	24258673645	9.517	46377864000
4	24262200576	9.518	270958808000
4	24265732513	9.519	4398021768000
4	24269294177	9.52	4416039848000
4	24272824771	9.521	39141784000
4	24276335568	9.522	1815975224000
4	24279858537	9.523	5387650320000
4	24283413925	9.524	1824349688000
4	24286935419	9.525	50648568000
4	24290457929	9.526	3839580344000
4	24293999657	9.527	82814080000
4	24297573280	9.528	3608942952000
4	24301125368	9.529	1262369992000
4	24304669024	9.53	827288568000
4	24308221008	9.531	328823928000
4	24311800657	9.532	40502624000
4	24315387631	9.533	850207848000
4	24318980734	9.534	2087087824000
4	24322575869	9.535	3702247224000
4	24326167756	9.536	3823199248000
4	24329766713	9.537	5188699480000
4	24333381503	9.538	67602960000
4	24336975692	9.539	40516000000
4	24340577859	9.54	43915136000
4	24344152294	9.541	55103944000
4	24347730695	9.542	2050131248000
4	24351311202	9.543	1868688416000
4	24354908641	9.544	2122378880000
4	24358531095	9.545	54374568000
4	24362139862	9.546	4438121600000
4	24365710805	9.547	4394925088000
4	24369279433	9.548	2665219088000
4	24372836547	9.549	1854207504000
4	24376396168	9.55	1821865752000
4	24379951275	9.551	59272544000
4	24383508630	9.552	857932520000
4	24387074897	9.553	66727688000
4	24390629861	9.554	50482400000
4	24394191201	9.555	5484714048000
4	24397759331	9.556	1825827200000
4	24401298584	9.557	841527048000
4	24404813456	9.558	1038795616000
4	24408325154	9.559	46019584000
4	24411863173	9.56	2044944816000
4	24415424633	9.561	1848022072000
4	24418966118	9.562	103114896000
4	24422489955	9.563	35495584000
4	24425992114	9.564	841328568000
4	24429484213	9.565	45854576000
4	24432985514	9.566	47858568000
4	24436496717	9.567	1845101752000
4	24440026408	9.568	821424864000
4	24443589710	9.569	3884243960000
4	24447164151	9.57	32265368000
4	24450733398	9.571	2621966048000
4	24454336413	9.572	839257472000
4	24457922688	9.573	1854216208000
4	24461486353	9.574	826159728000
4	24465024736	9.575	882847024000
4	24468568839	9.576	57169008000
4	24472085034	9.577	1638120096000
4	24475604996	9.578	1830215168000
4	24479136455	9.579	835670816000
4	24482649650	9.58	837658744000
4	24486148547	9.581	840780888000
4	24489652014	9.582	33181008000
4	24493188440	9.583	1895026384000
4	24496756972	9.584	54092424000
4	24500314858	9.585	3090303384000
4	24503860536	9.586	62709592000
4	24507414096	9.587	1896503888000
4	24511008009	9.588	37964544000
4	24514580435	9.589	35250640000
4	24518148666	9.59	1618738000000
4	24521712480	9.591	53320208000
4	24525281562	9.592	848734840000
4	24528854554	9.593	3835537416000
4	24532438105	9.594	3608204928000
4	24536001130	9.595	273808936000
4	24539584700	9.596	7206187336000
4	24543163113	9.597	4405555888000
4	24546735711	9.598	1848877960000
4	24550326953	9.599	40304832000
4	24553926945	9.6	2609944624000
4	24557499218	9.601	1612609632000
4	24561074978	9.602	497983712000
4	24564622875	9.603	2846702720000
4	24568185176	9.604	59841368000
4	24571738050	9.605	1895857712000
4	24575303027	9.606	4400330080000
4	24578840091	9.607	37882040000
4	24582383971	9.608	1707945408000
4	24585921022	9.609	3627905792000
4	24589454335	9.61	37039608000
4	24592990849	9.611	1047972776000
4	24596522970	9.612	42871144000
4	24600063776	9.613	1833643824000
4	24603596606	9.614	57514416000
4	24607116894	9.615	39731872000
4	24610636410	9.616	1822663328000
4	24614133572	9.617	3604094960000
4	24617669336	9.618	3606796856000
4	24621179103	9.619	4399448752000
4	24624675074	9.62	2202175576000
4	24628201959	9.621	832564104000
4	24631744451	9.622	1041511264000
4	24635280439	9.623	815763384000
4	24638815468	9.624	3597455504000
4	24642356048	9.625	267402640000
4	24645898287	9.626	42928888000
4	24649449088	9.627	1869214856000
4	24652990119	9.628	254535576000
4	24656532850	9.629	820723416000
4	24660050505	9.63	836644576000
4	24663574367	9.631	2905125560000
4	24667099054	9.632	3676846232000
4	24670605180	9.633	1835601224000
4	24674107414	9.634	35183128000
4	24677608043	9.635	2044378496000
4	24681094597	9.636	28641496000
4	24684578718	9.637	44716768000
4	24688068601	9.638	4627312696000
4	24691550041	9.639	1665495824000
4	24695059644	9.64	849862904000
4	24698554734	9.641	49079168000
4	24702072525	9.642	47343936000
4	24705560318	9.643	74231648000
4	24709067701	9.644	59029536000
4	24712583008	9.645	2684817336000
4	24716094531	9.646	4423774504000
4	24719585276	9.647	25277280000
4	24723081997	9.648	1829701064000
4	24726582347	9.649	39041440000
4	24730068939	9.65	29628176000
4	24733548736	9.651	1821003856000
4	24737076001	9.652	1194718800000
4	24740594900	9.653	48056352000
4	24744112005	9.654	256260264000
4	24747597695	9.655	1825849048000
4	24751089435	9.656	2036347296000
4	24754563227	9.657	1060660744000
4	24758060072	9.658	4247285824000
4	24761576507	9.659	279421392000
4	24765082702	9.66	51686376000
4	24768578560	9.661	42558168000
4	24772085864	9.662	1830175448000
4	24775576273	9.663	1848006560000
4	24779074751	9.664	824216936000
4	24782582701	9.665	24871872000
4	24786062400	9.666	1822897992000
4	24789539080	9.667	1620905056000
4	24792970112	9.668	263053872000
4	24796405103	9.669	2614630632000
4	24799840323	9.67	1860259608000
4	24803277955	9.671	1809728184000
4	24806724589	9.672	2609483912000
4	24810177995	9.673	2130845344000
4	24813623602	9.674	4419521408000
4	24817061598	9.675	39424456000
4	24820505467	9.676	42694584000
4	24823938283	9.677	1822893720000
4	24827349674	9.678	58516936000
4	24830761704	9.679	832497640000
4	24834162741	9.68	1837031240000
4	24837575389	9.681	52718224000
4	24840984479	9.682	59390616000
4	24844390563	9.683	101285592000
4	24847769150	9.684	847976352000
4	24851175996	9.685	1844370664000
4	24854585748	9.686	31599160000
4	24857997218	9.687	54796856000
4	24861397550	9.688	1617768904000
4	24864819184	9.689	2863710288000
4	24868250592	9.69	1838193680000
4	24871715901	9.691	37960448000
4	24875178553	9.692	836532512000
4	24878647870	9.693	296589408000
4	24882107183	9.694	822065848000
4	24885539402	9.695	238683568000
4	24888981034	9.696	3607705144000
4	24892446112	9.697	41334664000
4	24895868246	9.698	2604889184000
4	24899302412	9.699	1822334184000
4	24902725308	9.7	63302440000
4	24906164955	9.701	38418104000
4	24909595540	9.702	832621128000
4	24913027224	9.703	839978944000
4	24916502546	9.704	262121128000
4	24919960554	9.705	1851199944000
4	24923433098	9.706	910378328000
4	24926890382	9.707	21469328000
4	24930317048	9.708	52961312000
4	24933782640	9.709	1043294216000
4	24937237043	9.71	857487976000
4	24940689674	9.711	35901840000
4	24944171252	9.712	1116621480000
4	24947675894	9.713	4461635944000
4	24951193178	9.714	1827137696000
4	24954745145	9.715	2849798352000
4	24958279068	9.716	2626906704000
4	24961818431	9.717	240733392000
4	24965330766	9.718	1844020144000
4	24968851251	9.719	4416229480000
4	24972374049	9.72	2725858592000
4	24975885499	9.721	62945968000
4	24979429461	9.722	3680656904000
4	24982999977	9.723	1813678232000
4	24986586226	9.724	1844419432000
4	24990137025	9.725	1827782968000
4	24993698681	9.726	2613471608000
4	24997254635	9.727	2046192320000
4	25000844010	9.728	259082480000
4	25004479856	9.729	2085814856000
4	25008082929	9.73	1850594800000
4	25011685604	9.731	835727648000
4	25015280167	9.732	884655504000
4	25018901338	9.733	3450139752000
4	25022509593	9.734	1833544096000
4	25026120145	9.735	3638916320000
4	25029670624	9.736	249310160000
4	25033206106	9.737	3604172584000
4	25036765613	9.738	836696000000
4	25040306239	9.739	3622453912000
4	25043822285	9.74	2687652176000
4	25047320037	9.741	3837345664000
4	25050828015	9.742	841845224000
4	25054330288	9.743	3206629544000
4	25057827335	9.744	5257094632000
4	25061306923	9.745	41831440000
4	25064802391	9.746	1603601856000
4	25068330687	9.747	249036304000
4	25071816493	9.748	114252280000
4	25075291914	9.749	1815240760000
4	25078782059	9.75	832472352000
4	25082297305	9.751	256384808000
4	25085792816	9.752	106061080000
4	25089310374	9.753	37283952000
4	25092832965	9.754	4188023424000
4	25096368714	9.755	5458237592000
4	25099897748	9.756	838293928000
4	25103427607	9.757	1842489176000
4	25106940644	9.758	4393653440000
4	25110445687	9.759	2038257072000
4	25113942509	9.76	7176012144000
4	25117454178	9.761	57487624000
4	25120939375	9.762	48007576000
4	25124410761	9.763	1832794312000
4	25127896793	9.764	2060676616000
4	25131396994	9.765	104997104000
4	25134861084	9.766	1835451320000
4	25138334080	9.767	1832027024000
4	25141801508	9.768	3839798792000
4	25145274217	9.769	40720208000
4	25148760390	9.77	281260728000
4	25152276542	9.771	1828353424000
4	25155757479	9.772	1848468184000
4	25159238660	9.773	3613700008000
4	25162744009	9.774	40281560000
4	25166234899	9.775	78192288000
4	25169738238	9.776	33645968000
4	25173246354	9.777	250642240000
4	25176768585	9.778	152017776000
4	25180315929	9.779	4413686664000
4	25183851425	9.78	292492456000
4	25187362631	9.781	6186383928000
4	25190871572	9.782	5641504984000
4	25194375605	9.783	1828907416000
4	25197867187	9.784	3621879648000
4	25201351110	9.785	838047520000
4	25204851074	9.786	2061957464000
4	25208368124	9.787	887094528000
4	25211889621	9.788	3624055816000
4	25215405598	9.789	95422632000
4	25218918428	9.79	1821890184000
4	25222424779	9.791	2613787296000
4	25225916240	9.792	63756384000
4	25229398579	9.793	32368256000
4	25232898330	9.794	1815824088000
4	25236426257	9.795	270582744000
4	25239963290	9.796	44287456000
4	25243460680	9.797	3391273952000
4	25246964454	9.798	47024176000
4	25250475488	9.799	3670899616000
4	25253965511	9.8	1821660696000
4	25257442656	9.801	47979016000
4	25260939521	9.802	39120064000
4	25264407500	9.803	34835360000
4	25267885514	9.804	64761256000
4	25271337865	9.805	837135608000
4	25274785135	9.806	53712912000
4	25278267142	9.807	1838281008000
4	25281728290	9.808	1054090112000
4	25285176337	9.809	852635128000
4	25288613181	9.81	1046520952000
4	25292071572	9.811	41299328000
4	25295532723	9.812	492169656000
4	25299027077	9.813	849703256000
4	25302521001	9.814	841222232000
4	25306001537	9.815	2625765048000
4	25309500601	9.816	857453040000
4	25312963985	9.817	252661376000
4	25316425750	9.818	4395479064000
4	25319883361	9.819	2482889952000
4	25323333257	9.82	1831723544000
4	25326762473	9.821	62919856000
4	25330163561	9.822	1822181672000
4	25333586974	9.823	2280563048000
4	25337034031	9.824	1638614344000
4	25340470270	9.825	1823053784000
4	25343913631	9.826	2837872080000
4	25347346467	9.827	32689912000
4	25350776987	9.828	61714832000
4	25354189084	9.829	97738296000
4	25357611658	9.83	1895148648000
4	25361067735	9.831	2636386200000
4	25364511276	9.832	2699160448000
4	25367975699	9.833	47051416000
4	25371429245	9.834	1849028680000
4	25374864490	9.835	57610952000
4	25378284805	9.836	6179261640000
4	25381679670	9.837	845502536000
4	25385102306	9.838	2605922528000
4	25388537064	9.839	4399667800000
4	25391986726	9.84	832564760000
4	25395421540	9.841	3612726112000
4	25398842851	9.842	56823720000
4	25402283891	9.843	2049635976000
4	25405745801	9.844	1822937080000
4	25409200677	9.845	1884898120000
4	25412649138	9.846	1057910256000
4	25416098465	9.847	1831292880000
4	25419516844	9.848	33883704000
4	25422938956	9.849	1852939352000
4	25426388006	9.85	1826866288000
4	25429835548	9.851	3057211184000
4	25433279615	9.852	58218136000
4	25436675199	9.853	29272232000
4	25440061559	9.854	1832195416000
4	25443458702	9.855	835967080000
4	25446858574	9.856	2621392560000
4	25450244033	9.857	3634829320000
4	25453652388	9.858	260090168000
4	25457052337	9.859	311731136000
4	25460427445	9.86	37780536000
4	25463837357	9.861	848297736000
4	25467219830	9.862	839578456000
4	25470608237	9.863	814648104000
4	25474010676	9.864	1894963688000
4	25477421471	9.865	836856200000
4	25480854700	9.866	829174216000
4	25484282305	9.867	2639775784000
4	25487709869	9.868	292875488000
4	25491128126	9.869	824737568000
4	25494577448	9.87	44412264000
4	25498038357	9.871	2615756416000
4	25501505489	9.872	1827646832000
4	25504947706	9.873	831952496000
4	25508400541	9.874	843232176000
4	25511843510	9.875	1839876408000
4	25515264260	9.876	2027801688000
4	25518667667	9.877	1839842920000
4	25522069281	9.878	250714768000
4	25525452461	9.879	244315016000
4	25528860807	9.88	3604366784000
4	25532281001	9.881	2608004480000
4	25535689445	9.882	6175717504000
4	25539094670	9.883	249746504000
4	25542514400	9.884	1819856880000
4	25545926151	9.885	45372312000
4	25549311631	9.886	1829953520000
4	25552704365	9.887	1823262192000
4	25556104957	9.888	1826425376000
4	25559539096	9.889	1835689720000
4	25562956070	9.89	831955368000
4	25566362326	9.891	2028760752000
4	25569768838	9.892	1830680360000
4	25573167853	9.893	78482096000
4	25576562996	9.894	5174146856000
4	25579968099	9.895	3704443520000
4	25583397344	9.896	64213016000
4	25586838238	9.897	3607356472000
4	25590257995	9.898	835272232000
4	25593718187	9.899	2638878544000
4	25597194666	9.9	3720667592000
4	25600633546	9.901	5841245184000
4	25604095976	9.902	5393992584000
4	25607549294	9.903	2056229904000
4	25611004554	9.904	2673245440000
4	25614474369	9.905	106812576000
4	25617937514	9.906	3681608960000
4	25621421539	9.907	119390952000
4	25624889748	9.908	2604403864000
4	25628363617	9.909	2666147440000
4	25631830666	9.91	40094368000
4	25635297448	9.911	1897673296000
4	25638768711	9.912	40441528000
4	25642253907	9.913	276909672000
4	25645745777	9.914	841498624000
4	25649245745	9.915	121272768000
4	25652755781	9.916	32219904000
4	25656265435	9.917	53937992000
4	25659784247	9.918	37223064000
4	25663286807	9.919	2293538104000
4	25666765527	9.92	51297744000
4	25670235787	9.921	72081248000
4	25673719418	9.922	28138384000
4	25677219701	9.923	2612221312000
4	25680703716	9.924	2620748784000
4	25684197138	9.925	98415664000
4	25687689825	9.926	33338888000
4	25691197469	9.927	57011648000
4	25694676975	9.928	27511112000
4	25698173646	9.929	2631241592000
4	25701673719	9.93	252094112000
4	25705160780	9.931	1817599096000
4	25708643307	9.932	110375568000
4	25712134208	9.933	87555976000
4	25715628175	9.934	40373984000
4	25719119620	9.935	36714640000
4	25722619276	9.936	1840998304000
4	25726115958	9.937	1622917096000
4	25729596330	9.938	49754200000
4	25733117022	9.939	1058244840000
4	25736648216	9.94	3633189440000
4	25740124968	9.941	23283592000
4	25743604227	9.942	47553576000
4	25747103375	9.943	1848254368000
4	25750599181	9.944	269618760000
4	25754109214	9.945	38106936000
4	25757632310	9.946	1829095984000
4	25761163473	9.947	888602944000
4	25764701955	9.948	1829969528000
4	25768218404	9.949	1822379680000
4	25771737456	9.95	3845184136000
4	25775253111	9.951	1092657056000
4	25778770054	9.952	1825318488000
4	25782288804	9.953	828842232000
4	25785778294	9.954	1046079776000
4	25789259045	9.955	5206024552000
4	25792730083	9.956	1827077952000
4	25796195252	9.957	1859716656000
4	25799671791	9.958	35793568000
4	25803155001	9.959	30501720000
4	25806625488	9.96	1829547440000
4	25810082490	9.961	34984784000
4	25813560058	9.962	823573016000
4	25817038752	9.963	1036269176000
4	25820532508	9.964	50402080000
4	25824027278	9.965	117403000000
4	25827527098	9.966	823815416000
4	25831018836	9.967	261888056000
4	25834505427	9.968	2622298304000
4	25837996605	9.969	817059216000
4	25841455017	9.97	48998448000
4	25844941105	9.971	5391617712000
4	25848424977	9.972	1831108352000
4	25851904327	9.973	1846300896000
4	25855370554	9.974	119420352000
4	25858848314	9.975	34914184000
4	25862316180	9.976	3388165816000
4	25865777143	9.977	1835678864000
4	25869256578	9.978	3623780456000
4	25872750308	9.979	49832632000
4	25876259533	9.98	1834563528000
4	25879765758	9.981	916186288000
4	25883275465	9.982	3655425528000
4	25886768048	9.983	3397342280000
4	25890253312	9.984	1830060832000
4	25893731305	9.985	2632128352000
4	25897201898	9.986	3640492680000
4	25900646269	9.987	1827813456000
4	25904082301	9.988	838603232000
4	25907511847	9.989	1805442144000
4	25910965096	9.99	336550880000
4	25914410973	9.991	3414506552000
4	25917831314	9.992	1901819080000
4	25921269129	9.993	1840548816000
4	25924683978	9.994	901533776000
4	25928064541	9.995	1831749712000
4	25931473956	9.996	3845012760000
4	25934870304	9.997	262561496000
4	25938277962	9.998	3654782632000
4	25941702716	9.999	55017608000
4	25945146935	10	3764888064000

