version 2
run General-0-20221126-15:31:03-9744
attr configname General
attr datetime 20221126-15:31:03
attr experiment General
attr inifile omnetpp.ini
attr iterationvars ""
attr iterationvarsf ""
attr measurement ""
attr network Network
attr processid 9744
attr repetition 0
attr replication #0
attr resultdir results
attr runnumber 0
attr seedset 0
param Network.NumOfToRs 5
param Network.NumOfAggregation 3
param Network.rack[*].number_of_hosts 50000
param Network.linedelay 0.2
param Network.tor[*].CacheSize 1000
param Network.agg[*].CacheSize 1000
param Network.controllerswitch.CacheSize 1000
param Network.tor[*].threshold 2
param Network.agg[*].threshold 2
param Network.controllerswitch.threshold 1
param Network.tor[*].Type 1001
param Network.agg[*].Type 1002
param Network.controllerswitch.Type 1003
param Network.rack[*].host[*].flow_appearance "\"\""
param Network.rack[*].host[*].flow_size "\"\""
param Network.policy_size "\"\""
param Network.cache_size "\"\""
param Network.propagation_time "\"\""
param Network.processing_time_on_data_packet_in_sw "\"\""
param Network.processing_time_on_data_packet_in_controller "\"\""
param Network.insertion_delay "\"\""
param Network.eviction_delay "\"\""
param Network.elephant_table_size "\"\""
param Network.flush_elephant_time "\"\""
param Network.check_for_elephant_time "\"\""
param Network.elephant_sample_rx "\"\""
param Network.bandwidth_elephant_threshold "\"\""
param Network.already_requested_threshold "\"\""
param Network.push_threshold_in_aggregation "\"\""
param Network.push_threshold_in_controller_switch "\"\""
param Network.cache_percentage "\"\""
param Network.eviction_sample_size "\"\""
param Network.inter_arrival_time_between_packets "\"\""
param Network.inter_arrival_time_between_flowlets "\"\""
param Network.inter_arrival_time_between_flows "\"\""
param Network.large_flow "\"\""
param Network.last_flow_appearance "\"0\""
param Network.rack[*].last_flow_appearance "\"0\""

vector 0 Network.rack[0].hub flowlet_count ETV
vector 1 Network.rack[1].hub flowlet_count ETV
vector 2 Network.rack[2].hub flowlet_count ETV
vector 3 Network.rack[3].hub flowlet_count ETV
vector 4 Network.rack[4].hub flowlet_count ETV
0	1519457811	3.001	1822866640000
0	1523346365	3.002	114929680000
0	1527219834	3.003	1833084888000
0	1531138737	3.004	2041253872000
0	1535086163	3.005	2616036184000
0	1539056839	3.006	2604397512000
0	1543083502	3.007	47475312000
0	1547119540	3.008	49409224000
0	1551170244	3.009	3644551016000
0	1555228830	3.01	60929008000
0	1559313861	3.011	271523352000
0	1563417631	3.012	4396060048000
0	1567517147	3.013	3598888184000
0	1571634991	3.014	845427488000
0	1575752126	3.015	826960704000
0	1579873120	3.016	28878240000
0	1584003859	3.017	1614828920000
0	1588155532	3.018	1813340848000
0	1592316394	3.019	3610230072000
0	1596466270	3.02	1815994872000
0	1600619235	3.021	5454960728000
0	1604783673	3.022	1856035904000
0	1608996073	3.023	488208184000
0	1613188333	3.024	2042897896000
0	1617380921	3.025	2055383240000
0	1621567602	3.026	61362312000
0	1625758310	3.027	863111688000
0	1629962400	3.028	47615096000
0	1634141336	3.029	2839647040000
0	1638289644	3.03	273840808000
0	1642456488	3.031	3893463352000
0	1646624369	3.032	6195211808000
0	1650797956	3.033	3604134968000
0	1654976698	3.034	1056231064000
0	1659156112	3.035	49874024000
0	1663305411	3.036	3628362952000
0	1667464670	3.037	4393712344000
0	1671640642	3.038	44067784000
0	1675822514	3.039	5392910584000
0	1680003982	3.04	3608603160000
0	1684178535	3.041	2679760568000
0	1688328072	3.042	40905968000
0	1692503074	3.043	1839165480000
0	1696681281	3.044	825921064000
0	1700845470	3.045	4393241464000
0	1705038907	3.046	56565440000
0	1709243898	3.047	2610122712000
0	1713438448	3.048	2095023568000
0	1717600086	3.049	3622482216000
0	1721819168	3.05	2824345112000
0	1726049035	3.051	2837660304000
0	1730248549	3.052	1812765984000
0	1734488363	3.053	30058936000
0	1738716686	3.054	39265344000
0	1742952501	3.055	4871317640000
0	1747175660	3.056	2398219592000
0	1751424792	3.057	2633539272000
0	1755642792	3.058	28082360000
0	1759855184	3.059	75619248000
0	1764101016	3.06	1815234968000
0	1768361595	3.061	1834198728000
0	1772652389	3.062	38887760000
0	1776923251	3.063	1821648496000
0	1781193828	3.064	3609406168000
0	1785449875	3.065	2671837248000
0	1789742565	3.066	69821064000
0	1794013719	3.067	58607936000
0	1798288582	3.068	2638090832000
0	1802556034	3.069	2054799656000
0	1806832037	3.07	1907406968000
0	1811105089	3.071	54930088000
0	1815373285	3.072	1843570728000
0	1819634722	3.073	3614092272000
0	1823867520	3.074	3406154176000
0	1828104660	3.075	2670756280000
0	1832334177	3.076	255613056000
0	1836553464	3.077	1059370704000
0	1840748470	3.078	1040991624000
0	1844957223	3.079	50261464000
0	1849177439	3.08	842934864000
0	1853353260	3.081	44259896000
0	1857532478	3.082	1812789504000
0	1861691794	3.083	1851256096000
0	1865903814	3.084	3403860560000
0	1870126950	3.085	52820864000
0	1874355889	3.086	1824576512000
0	1878600584	3.087	2050969440000
0	1882802529	3.088	2038235992000
0	1887047370	3.089	1812376680000
0	1891298665	3.09	43759896000
0	1895525133	3.091	47866736000
0	1899754510	3.092	1825043608000
0	1903989465	3.093	815135872000
0	1908220187	3.094	4456250136000
0	1912465153	3.095	1818645472000
0	1916715858	3.096	1832093912000
0	1920941721	3.097	250562376000
0	1925172738	3.098	1858377880000
0	1929411785	3.099	85443952000
0	1933656913	3.1	5397708944000
0	1937896091	3.101	2042916032000
0	1942124402	3.102	42165648000
0	1946338582	3.103	47801272000
0	1950551851	3.104	1824932536000
0	1954733803	3.105	830951000000
0	1958944989	3.106	1842468352000
0	1963154506	3.107	42329928000
0	1967353534	3.108	1060220160000
0	1971564065	3.109	3624353008000
0	1975746140	3.11	1830501296000
0	1979936802	3.111	42559920000
0	1984125876	3.112	3062987736000
0	1988318341	3.113	23955296000
0	1992547508	3.114	2823983592000
0	1996791837	3.115	3614800864000
0	2001026683	3.116	1115109088000
0	2005239691	3.117	80254928000
0	2009461662	3.118	3412219688000
0	2013688743	3.119	63779600000
0	2017937480	3.12	1842615048000
0	2022189547	3.121	3613857320000
0	2026437837	3.122	34922968000
0	2030666860	3.123	2625993520000
0	2034902202	3.124	2047440080000
0	2039123322	3.125	2046871048000
0	2043351871	3.126	2834042368000
0	2047602533	3.127	2059933952000
0	2051849040	3.128	1047548704000
0	2056101665	3.129	2840463456000
0	2060345463	3.13	2053906504000
0	2064557825	3.131	48598960000
0	2068779228	3.132	4453403088000
0	2073023854	3.133	2617975392000
0	2077275258	3.134	3622286760000
0	2081519981	3.135	1853800384000
0	2085792603	3.136	2048983776000
0	2090050289	3.137	817086544000
0	2094291543	3.138	42001592000
0	2098541217	3.139	3830155288000
0	2102814660	3.14	247648792000
0	2107086439	3.141	87231136000
0	2111350902	3.142	1834795624000
0	2115603974	3.143	2823896800000
0	2119882842	3.144	55212680000
0	2124168292	3.145	2261598176000
0	2128503660	3.146	1884397864000
0	2132839134	3.147	1629488880000
0	2137194476	3.148	65993112000
0	2141525494	3.149	43601720000
0	2145839249	3.15	827303936000
0	2150163605	3.151	22102432000
0	2154479203	3.152	36794688000
0	2158808043	3.153	1039011656000
0	2163098738	3.154	3814676392000
0	2167394435	3.155	54881744000
0	2171713647	3.156	2608479736000
0	2176009465	3.157	2038069312000
0	2180299568	3.158	34592816000
0	2184581212	3.159	1831858448000
0	2188857300	3.16	52333800000
0	2193136697	3.161	50203064000
0	2197402244	3.162	4410829240000
0	2201698607	3.163	3627539304000
0	2205973022	3.164	27779448000
0	2210229733	3.165	921825552000
0	2214480311	3.166	41234640000
0	2218731408	3.167	1815051584000
0	2222927873	3.168	4634640416000
0	2227129498	3.169	49964200000
0	2231380721	3.17	1824808704000
0	2235614763	3.171	4407766352000
0	2239840832	3.172	38412600000
0	2244066862	3.173	1817253672000
0	2248319997	3.174	499611120000
0	2252541182	3.175	39865760000
0	2256758929	3.176	2073216896000
0	2260971379	3.177	2606167800000
0	2265186889	3.178	3392121960000
0	2269406780	3.179	1892743984000
0	2273638619	3.18	4410309784000
0	2277865507	3.181	258936136000
0	2282094545	3.182	831763976000
0	2286323448	3.183	88614088000
0	2290546349	3.184	2835839368000
0	2294794134	3.185	53364432000
0	2299004098	3.186	1871269016000
0	2303213719	3.187	42236336000
0	2307458073	3.188	1844157032000
0	2311715754	3.189	2625052976000
0	2315966442	3.19	44003224000
0	2320196675	3.191	3628372848000
0	2324415582	3.192	1264334744000
0	2328643497	3.193	57375840000
0	2332873795	3.194	2632817248000
0	2337111189	3.195	276143168000
0	2341370612	3.196	2049849688000
0	2345637442	3.197	490796064000
0	2349914631	3.198	36670736000
0	2354195281	3.199	5208924456000
0	2358471634	3.2	1040009088000
0	2362720426	3.201	59402840000
0	2366914712	3.202	1830710216000
0	2371097538	3.203	43934128000
0	2375293449	3.204	2671379976000
0	2379492373	3.205	2628516248000
0	2383704228	3.206	84485032000
0	2387901388	3.207	3609004512000
0	2392102174	3.208	72313208000
0	2396304153	3.209	842978176000
0	2400480702	3.21	1825456048000
0	2404660691	3.211	31525056000
0	2408835092	3.212	3842523768000
0	2413007348	3.213	115949456000
0	2417223375	3.214	1839859464000
0	2421456828	3.215	1817890616000
0	2425695028	3.216	3826817824000
0	2429911813	3.217	3606507552000
0	2434147858	3.218	894264480000
0	2438328690	3.219	1817655776000
0	2442524522	3.22	1814471576000
0	2446707544	3.221	54069024000
0	2450914107	3.222	2261897064000
0	2455090875	3.223	43292704000
0	2459264642	3.224	1817514144000
0	2463396237	3.225	257766128000
0	2467539532	3.226	1665475808000
0	2471670211	3.227	34234968000
0	2475794623	3.228	1838709256000
0	2479936304	3.229	2036335072000
0	2484055352	3.23	2619957616000
0	2488182576	3.231	320325736000
0	2492279777	3.232	844249304000
0	2496346126	3.233	2042823520000
0	2500397099	3.234	256936152000
0	2504476048	3.235	3410236680000
0	2508558118	3.236	1319106552000
0	2512648707	3.237	3607862944000
0	2516743807	3.238	30126832000
0	2520851297	3.239	3644738488000
0	2524969271	3.24	1830324432000
0	2529080628	3.241	1851675160000
0	2533187352	3.242	1891449888000
0	2537291506	3.243	104764880000
0	2541393763	3.244	820063056000
0	2545483895	3.245	39433192000
0	2549576102	3.246	844760584000
0	2553692195	3.247	1617982056000
0	2557798797	3.248	271674472000
0	2561929143	3.249	50424616000
0	2566040755	3.25	1815502648000
0	2570167143	3.251	5456359728000
0	2574289236	3.252	1891611928000
0	2578409631	3.253	48683264000
0	2582522162	3.254	2124863976000
0	2586625800	3.255	1628816160000
0	2590721964	3.256	3413314888000
0	2594829797	3.257	315763056000
0	2598908131	3.258	3620323336000
0	2602958480	3.259	43083024000
0	2607025374	3.26	1842480352000
0	2611094336	3.261	39223112000
0	2615170663	3.262	6971977616000
0	2619230320	3.263	61807392000
0	2623288700	3.264	98759984000
0	2627376457	3.265	54342000000
0	2631457825	3.266	3393889264000
0	2635515015	3.267	7189262320000
0	2639574590	3.268	55633328000
0	2643649621	3.269	2069501264000
0	2647705246	3.27	1819914992000
0	2651777309	3.271	28718608000
0	2655833604	3.272	2040403840000
0	2659880874	3.273	274418424000
0	2663916380	3.274	2829822872000
0	2667975462	3.275	1831109504000
0	2672020762	3.276	1618260272000
0	2676072836	3.277	1611713328000
0	2680124601	3.278	44285336000
0	2684184282	3.279	3408356912000
0	2688218002	3.28	46792568000
0	2692270430	3.281	7194380232000
0	2696309921	3.282	866132128000
0	2700361491	3.283	1831728248000
0	2704391663	3.284	28865880000
0	2708433343	3.285	30892680000
0	2712459944	3.286	842381888000
0	2716481628	3.287	818634280000
0	2720526502	3.288	819358872000
0	2724543892	3.289	100368120000
0	2728552293	3.29	63390920000
0	2732579320	3.291	66297720000
0	2736610034	3.292	44922496000
0	2740639503	3.293	1813018128000
0	2744661325	3.294	60606200000
0	2748678049	3.295	37033528000
0	2752703813	3.296	55857640000
0	2756746928	3.297	2045719936000
0	2760766557	3.298	2605101488000
0	2764772030	3.299	823722576000
0	2768788703	3.3	45458120000
0	2772794264	3.301	74188120000
0	2776785468	3.302	58887720000
0	2780768551	3.303	2052012184000
0	2784733482	3.304	41680640000
0	2788698486	3.305	1857069360000
0	2792691688	3.306	849513440000
0	2796624495	3.307	1812100720000
0	2800580052	3.308	46735328000
0	2804554042	3.309	1826245744000
0	2808524872	3.31	2840884688000
0	2812504599	3.311	2658950456000
0	2816462694	3.312	3636625992000
0	2820444743	3.313	822868800000
0	2824439880	3.314	30082456000
0	2828445695	3.315	820978552000
0	2832462204	3.316	98077648000
0	2836467955	3.317	523723448000
0	2840465830	3.318	1046083808000
0	2844464827	3.319	27952720000
0	2848489578	3.32	851061560000
0	2852481903	3.321	39448904000
0	2856496277	3.322	56916656000
0	2860514289	3.323	7188644984000
0	2864531477	3.324	97313640000
0	2868557396	3.325	1816650368000
0	2872581076	3.326	6197376768000
0	2876604941	3.327	1841324488000
0	2880608280	3.328	6192647696000
0	2884608772	3.329	5412568568000
0	2888607756	3.33	1826742616000
0	2892626125	3.331	1918344088000
0	2896645459	3.332	1828778216000
0	2900652276	3.333	2643266920000
0	2904655268	3.334	3404133408000
0	2908707097	3.335	1815210176000
0	2912737196	3.336	56621632000
0	2916764532	3.337	1831315448000
0	2920784087	3.338	3603510424000
0	2924833397	3.339	1629562568000
0	2928881966	3.34	28816760000
0	2932936640	3.341	4417201096000
0	2936982807	3.342	66178496000
0	2941048677	3.343	47439096000
0	2945096710	3.344	3611957688000
0	2949165320	3.345	1824668200000
0	2953229513	3.346	2945102960000
0	2957293163	3.347	110944632000
0	2961325285	3.348	2034366656000
0	2965371662	3.349	4424128064000
0	2969435774	3.35	262355040000
0	2973490306	3.351	22369928000
0	2977553238	3.352	2612856592000
0	2981619395	3.353	852766144000
0	2985684870	3.354	848982144000
0	2989710987	3.355	257714496000
0	2993731073	3.356	51747472000
0	2997777389	3.357	1839990704000
0	3001843750	3.358	239214672000
0	3005884343	3.359	6195130488000
0	3009935809	3.36	30156728000
0	3013999229	3.361	1826048848000
0	3018058506	3.362	3651165256000
0	3022126638	3.363	1812101928000
0	3026183962	3.364	2052673776000
0	3030245092	3.365	241917736000
0	3034325366	3.366	1613187408000
0	3038397408	3.367	2884542504000
0	3042492312	3.368	2616786656000
0	3046590270	3.369	2030206352000
0	3050667358	3.37	255145448000
0	3054754684	3.371	3425150704000
0	3058833611	3.372	1831316368000
0	3062931970	3.373	1839956736000
0	3067025154	3.374	58434736000
0	3071117077	3.375	1845648896000
0	3075205715	3.376	69900928000
0	3079288446	3.377	75733168000
0	3083341013	3.378	272668368000
0	3087402183	3.379	104780568000
0	3091447912	3.38	1813470616000
0	3095508775	3.381	1814253312000
0	3099547384	3.382	46222624000
0	3103574788	3.383	2620974784000
0	3107597958	3.384	103261912000
0	3111610028	3.385	58785352000
0	3115622525	3.386	45307176000
0	3119632509	3.387	824721624000
0	3123686737	3.388	1041872400000
0	3127710255	3.389	1820273880000
0	3131730911	3.39	32557064000
0	3135753213	3.391	51413664000
0	3139785003	3.392	133778736000
0	3143823529	3.393	5397220536000
0	3147864454	3.394	4201689888000
0	3151895055	3.395	275389584000
0	3155945838	3.396	32275864000
0	3159986717	3.397	2637471056000
0	3164057827	3.398	105409624000
0	3168156864	3.399	1836780576000
0	3172261858	3.4	3659064688000
0	3176362651	3.401	1833152712000
0	3180455904	3.402	2615397776000
0	3184542801	3.403	1274126280000
0	3188647148	3.404	1630868920000
0	3192752622	3.405	5593240816000
0	3196845757	3.406	5198209968000
0	3200941019	3.407	39221744000
0	3205022209	3.408	1831600552000
0	3209117992	3.409	36085496000
0	3213196275	3.41	1821018840000
0	3217297647	3.411	1819620248000
0	3221392984	3.412	32571240000
0	3225482217	3.413	32150424000
0	3229550643	3.414	49568232000
0	3233647352	3.415	2610821968000
0	3237765727	3.416	53774264000
0	3241862486	3.417	1822042640000
0	3245954672	3.418	26086480000
0	3250046859	3.419	1820228376000
0	3254151736	3.42	47437888000
0	3258276886	3.421	1831629416000
0	3262400229	3.422	59167648000
0	3266522877	3.423	42813216000
0	3270624661	3.424	5178307088000
0	3274763263	3.425	818664216000
0	3278910146	3.426	1832133096000
0	3283047490	3.427	395360520000
0	3287178658	3.428	39599064000
0	3291297011	3.429	3639118648000
0	3295435554	3.43	256662728000
0	3299576815	3.431	1829675352000
0	3303690443	3.432	842923008000
0	3307798700	3.433	270614368000
0	3311905061	3.434	319552216000
0	3316006612	3.435	51929816000
0	3320120939	3.436	1855999304000
0	3324250295	3.437	53855648000
0	3328366850	3.438	4393467488000
0	3332482248	3.439	2615195856000
0	3336566457	3.44	38731984000
0	3340629415	3.441	1901439256000
0	3344705325	3.442	1035622800000
0	3348773520	3.443	1056346264000
0	3352843371	3.444	2049762816000
0	3356898221	3.445	21083288000
0	3360941236	3.446	2609414072000
0	3364991855	3.447	2641824824000
0	3369082672	3.448	38999024000
0	3373132728	3.449	132715208000
0	3377146660	3.45	28618088000
0	3381170042	3.451	33334512000
0	3385195460	3.452	1822716904000
0	3389209307	3.453	484416648000
0	3393235157	3.454	2630369960000
0	3397255459	3.455	57776320000
0	3401257180	3.456	3922101512000
0	3405285090	3.457	2061906768000
0	3409316891	3.458	5251069552000
0	3413359251	3.459	1844363296000
0	3417402742	3.46	35096168000
0	3421410503	3.461	249863192000
0	3425398028	3.462	6180013584000
0	3429409871	3.463	4092232592000
0	3433457484	3.464	5201964440000
0	3437529969	3.465	3640930080000
0	3441592649	3.466	75688536000
0	3445652948	3.467	28678896000
0	3449720779	3.468	1861351312000
0	3453759608	3.469	825036504000
0	3457776858	3.47	1830470680000
0	3461793333	3.471	272582152000
0	3465842446	3.472	1819056232000
0	3469874511	3.473	1902549616000
0	3473905022	3.474	1845588760000
0	3477939424	3.475	51420296000
0	3481980305	3.476	37275464000
0	3486029341	3.477	1611620808000
0	3490080947	3.478	1831793248000
0	3494140965	3.479	1892201112000
0	3498223747	3.48	2616548048000
0	3502287825	3.481	46225552000
0	3506367574	3.482	1848626680000
0	3510471306	3.483	42504880000
0	3514570616	3.484	3416098152000
0	3518634391	3.485	61451056000
0	3522689985	3.486	3642042496000
0	3526771154	3.487	4407792936000
0	3530837041	3.488	2122018464000
0	3534909925	3.489	2622586120000
0	3538954338	3.49	2597520944000
0	3543014651	3.491	1886294880000
0	3547076951	3.492	829583704000
0	3551124397	3.493	1700798368000
0	3555170425	3.494	29344392000
0	3559240029	3.495	1832566736000
0	3563282849	3.496	2036598728000
0	3567292582	3.497	1048725040000
0	3571337689	3.498	1835874448000
0	3575367629	3.499	53274056000
0	3579382347	3.5	70907040000
0	3583407137	3.501	1841649688000
0	3587422767	3.502	257313416000
0	3591452086	3.503	860815288000
0	3595479507	3.504	48278448000
0	3599496478	3.505	821242864000
0	3603524822	3.506	825319608000
0	3607527977	3.507	56017976000
0	3611537943	3.508	41431712000
0	3615510207	3.509	4621868664000
0	3619503273	3.51	1843904184000
0	3623529794	3.511	3389873552000
0	3627566694	3.512	38440984000
0	3631621971	3.513	2160640168000
0	3635651908	3.514	1058188488000
0	3639694528	3.515	1838240200000
0	3643754720	3.516	3620646048000
0	3647797957	3.517	102834984000
0	3651855394	3.518	4396112224000
0	3655897619	3.519	2094392760000
0	3659928607	3.52	2714503464000
0	3663948660	3.521	1843894608000
0	3667957472	3.522	4733932264000
0	3671961829	3.523	3622549568000
0	3675969812	3.524	1845565000000
0	3679982329	3.525	1860020552000
0	3684024941	3.526	1871632264000
0	3688053156	3.527	36192776000
0	3692074568	3.528	3822409984000
0	3696102362	3.529	61996624000
0	3700155604	3.53	2825563312000
0	3704202210	3.531	821712512000
0	3708276181	3.532	70136368000
0	3712385060	3.533	3635013640000
0	3716470053	3.534	57061160000
0	3720555956	3.535	61394208000
0	3724648273	3.536	4690501352000
0	3728739586	3.537	3605820352000
0	3732853167	3.538	2606351232000
0	3736922446	3.539	2046798864000
0	3740991273	3.54	888354584000
0	3745048663	3.541	3604122496000
0	3749096414	3.542	3832145800000
0	3753179406	3.543	2067739904000
0	3757248332	3.544	840683872000
0	3761344431	3.545	82911352000
0	3765441153	3.546	32055944000
0	3769517073	3.547	1056563192000
0	3773605195	3.548	3401588256000
0	3777706080	3.549	833641896000
0	3781794481	3.55	34054456000
0	3785882116	3.551	288897176000
0	3789970218	3.552	47065512000
0	3794040038	3.553	829121192000
0	3798133245	3.554	1839280800000
0	3802213150	3.555	2624627192000
0	3806286597	3.556	250292976000
0	3810309078	3.557	25401784000
0	3814351503	3.558	3623451984000
0	3818413595	3.559	2048051280000
0	3822475783	3.56	1048624120000
0	3826537103	3.561	3619466776000
0	3830601698	3.562	2615305240000
0	3834712352	3.563	829151328000
0	3838798897	3.564	42405056000
0	3842884471	3.565	814516552000
0	3846979330	3.566	5432941896000
0	3851076286	3.567	29798296000
0	3855149183	3.568	1693475528000
0	3859248055	3.569	1828605216000
0	3863400244	3.57	53869008000
0	3867502438	3.571	3623573192000
0	3871606177	3.572	2067217280000
0	3875702901	3.573	59367280000
0	3879793930	3.574	1818257504000
0	3883848034	3.575	260000144000
0	3887888303	3.576	1955731448000
0	3891941392	3.577	30127624000
0	3895995480	3.578	3723939496000
0	3900053260	3.579	1876416344000
0	3904103093	3.58	3623465464000
0	3908150256	3.581	3611221200000
0	3912187110	3.582	947561416000
0	3916221725	3.583	37736216000
0	3920288012	3.584	1859685544000
0	3924329436	3.585	47163808000
0	3928393137	3.586	5605800216000
0	3932465896	3.587	1841524848000
0	3936572104	3.588	1057071904000
0	3940674334	3.589	846860312000
0	3944788434	3.59	2520891016000
0	3948915247	3.591	839745672000
0	3953006359	3.592	1883521200000
0	3957129660	3.593	40115416000
0	3961302169	3.594	3635601376000
0	3965456164	3.595	894299720000
0	3969641860	3.596	270598472000
0	3973818432	3.597	463292416000
0	3978015557	3.598	1626767280000
0	3982223453	3.599	1859756408000
0	3986409439	3.6	837207928000
0	3990574747	3.601	2629657760000
0	3994745380	3.602	1822619744000
0	3998928489	3.603	2625919168000
0	4003133503	3.604	845519608000
0	4007323385	3.605	56667088000
0	4011510386	3.606	828378064000
0	4015672703	3.607	5645035464000
0	4019820378	3.608	2046302128000
0	4023973868	3.609	2623515296000
0	4028123994	3.61	2607013664000
0	4032254327	3.611	6040483016000
0	4036372851	3.612	819965832000
0	4040492889	3.613	895694664000
0	4044612235	3.614	287231520000
0	4048720772	3.615	31535360000
0	4052827252	3.616	1815425232000
0	4056950728	3.617	3836176072000
0	4061087159	3.618	263307024000
0	4065198286	3.619	25931896000
0	4069318373	3.62	43486360000
0	4073440517	3.621	1836360448000
0	4077559673	3.622	1823823448000
0	4081715962	3.623	849228896000
0	4085873516	3.624	3397534944000
0	4090046812	3.625	1852202944000
0	4094216508	3.626	1615080664000
0	4098381430	3.627	1831801224000
0	4102559924	3.628	1846314952000
0	4106747002	3.629	80816480000
0	4110909884	3.63	1816863848000
0	4115090097	3.631	3614154992000
0	4119241037	3.632	838372528000
0	4123437218	3.633	5628509624000
0	4127625557	3.634	113153368000
0	4131796909	3.635	266845280000
0	4135939968	3.636	1885759904000
0	4140083729	3.637	49114056000
0	4144231536	3.638	1939066384000
0	4148353598	3.639	827954880000
0	4152465587	3.64	1901985808000
0	4156545468	3.641	4424154256000
0	4160619977	3.642	832651880000
0	4164719989	3.643	1818954968000
0	4168799536	3.644	52795280000
0	4172867855	3.645	54227320000
0	4176927642	3.646	48016536000
0	4181012067	3.647	84715952000
0	4185066006	3.648	40464664000
0	4189126695	3.649	479910408000
0	4193205478	3.65	1840584632000
0	4197274770	3.651	1814626328000
0	4201333965	3.652	43770256000
0	4205364900	3.653	1036715304000
0	4209386243	3.654	3830519440000
0	4213420954	3.655	1812777496000
0	4217436757	3.656	1818833344000
0	4221454030	3.657	828749952000
0	4225458538	3.658	258867552000
0	4229497337	3.659	1628765528000
0	4233558683	3.66	830981008000
0	4237627991	3.661	32739648000
0	4241691258	3.662	44707560000
0	4245744791	3.663	5413354440000
0	4249797025	3.664	1842832840000
0	4253854593	3.665	818844880000
0	4257900619	3.666	48165592000
0	4261937179	3.667	3603940056000
0	4265957997	3.668	823530000000
0	4269973800	3.669	32917224000
0	4273989943	3.67	261196016000
0	4278015991	3.671	1835085520000
0	4282023411	3.672	56480248000
0	4286043836	3.673	249890848000
0	4290072106	3.674	1827038888000
0	4294095903	3.675	829710256000
0	4298125814	3.676	2618683176000
0	4302157034	3.677	1831895368000
0	4306186487	3.678	6190809624000
0	4310195229	3.679	45809584000
0	4314191605	3.68	103916712000
0	4318210798	3.681	31579144000
0	4322233918	3.682	2705970864000
0	4326275762	3.683	2612240272000
0	4330320833	3.684	822305776000
0	4334378004	3.685	1898889992000
0	4338456425	3.686	20522016000
0	4342499010	3.687	30747824000
0	4346544699	3.688	35021544000
0	4350607333	3.689	3715400216000
0	4354644654	3.69	68642488000
0	4358670641	3.691	884026368000
0	4362691611	3.692	835233456000
0	4366736252	3.693	5657446224000
0	4370757706	3.694	2125078840000
0	4374751381	3.695	901989872000
0	4378765651	3.696	2053150280000
0	4382767461	3.697	3665715296000
0	4386780579	3.698	1839948856000
0	4390831251	3.699	3831420664000
0	4394864588	3.7	834897384000
0	4398900423	3.701	2683048048000
0	4402914721	3.702	2624743528000
0	4406937364	3.703	2064247440000
0	4410968137	3.704	270042360000
0	4415020873	3.705	2435526824000
0	4419058206	3.706	3597165608000
0	4423098200	3.707	37173176000
0	4427138289	3.708	1834142248000
0	4431170053	3.709	1845636176000
0	4435212511	3.71	1834879296000
0	4439244417	3.711	1819215568000
0	4443264039	3.712	826475800000
0	4447334271	3.713	1828601016000
0	4451386982	3.714	2102413288000
0	4455421695	3.715	833033480000
0	4459491036	3.716	2058253384000
0	4463569184	3.717	29695240000
0	4467629899	3.718	485977120000
0	4471724813	3.719	5627433728000
0	4475799808	3.72	4198783552000
0	4479877712	3.721	821602592000
0	4483945560	3.722	76052336000
0	4488017918	3.723	1884828672000
0	4492086937	3.724	145949576000
0	4496168646	3.725	1850331584000
0	4500227772	3.726	853964632000
0	4504260709	3.727	33662392000
0	4508297624	3.728	847740352000
0	4512330166	3.729	2050568552000
0	4516369289	3.73	1881598944000
0	4520430582	3.731	3605667816000
0	4524450493	3.732	263095432000
0	4528469956	3.733	838603624000
0	4532532491	3.734	50823864000
0	4536606156	3.735	3837688472000
0	4540637867	3.736	840312448000
0	4544680304	3.737	59209552000
0	4548720093	3.738	70264664000
0	4552795734	3.739	841237376000
0	4556848419	3.74	5405995152000
0	4560913794	3.741	57700840000
0	4564971381	3.742	7307136880000
0	4569026761	3.743	3817850312000
0	4573055002	3.744	825064504000
0	4577093020	3.745	3605018304000
0	4581158978	3.746	3614892816000
0	4585223580	3.747	103135792000
0	4589302001	3.748	2437265688000
0	4593385784	3.749	60258480000
0	4597502773	3.75	1053945608000
0	4601628091	3.751	2623731304000
0	4605717841	3.752	2684187088000
0	4609798623	3.753	857469496000
0	4613888315	3.754	3828058176000
0	4618017085	3.755	2857106928000
0	4622099489	3.756	2661731312000
0	4626177493	3.757	2046864640000
0	4630266847	3.758	6228518816000
0	4634334781	3.759	41060312000
0	4638434927	3.76	3649231800000
0	4642497046	3.761	257788208000
0	4646573022	3.762	827115344000
0	4650643656	3.763	1833030672000
0	4654699680	3.764	3613718136000
0	4658787768	3.765	36283264000
0	4662890006	3.766	1835986552000
0	4666963388	3.767	4406318504000
0	4671045576	3.768	3672650480000
0	4675122510	3.769	1049364728000
0	4679217718	3.77	2029140768000
0	4683309865	3.771	2059180784000
0	4687400606	3.772	1815125088000
0	4691508398	3.773	1830891568000
0	4695590721	3.774	119494880000
0	4699675318	3.775	3857684872000
0	4703766301	3.776	270146240000
0	4707833938	3.777	1843104384000
0	4711898015	3.778	50730144000
0	4715972579	3.779	44703648000
0	4720032288	3.78	1855733736000
0	4724087739	3.781	2618652672000
0	4728151242	3.782	1838136360000
0	4732210341	3.783	1054877808000
0	4736261847	3.784	35608280000
0	4740295804	3.785	4050289168000
0	4744349004	3.786	2830744512000
0	4748394689	3.787	1856441752000
0	4752444099	3.788	1816364064000
0	4756476337	3.789	1835095352000
0	4760497125	3.79	33650816000
0	4764502359	3.791	36416840000
0	4768496534	3.792	2618467552000
0	4772490467	3.793	272129848000
0	4776490474	3.794	3825543560000
0	4780509741	3.795	2844047248000
0	4784498854	3.796	2668227744000
0	4788517144	3.797	274999632000
0	4792528120	3.798	1873668360000
0	4796523882	3.799	288201680000
0	4800536473	3.8	1826896064000
0	4804576804	3.801	5415268984000
0	4808601905	3.802	855541256000
0	4812618202	3.803	2624151600000
0	4816615907	3.804	273300712000
0	4820593668	3.805	2597772448000
0	4824595831	3.806	1840563152000
0	4828594548	3.807	1846568856000
0	4832591621	3.808	9747185168000
0	4836589013	3.809	41137264000
0	4840586215	3.81	822313128000
0	4844596378	3.811	1061935336000
0	4848617073	3.812	3604054336000
0	4852664269	3.813	58303056000
0	4856713795	3.814	1830040656000
0	4860754952	3.815	53428248000
0	4864794782	3.816	1821850152000
0	4868820969	3.817	2108147744000
0	4872848337	3.818	4399969560000
0	4876919985	3.819	1813324936000
0	4881018559	3.82	841457248000
0	4885116485	3.821	42003448000
0	4889227967	3.822	822374592000
0	4893325754	3.823	3658407840000
0	4897438715	3.824	1631419552000
0	4901553314	3.825	121422768000
0	4905663057	3.826	1843031416000
0	4909778157	3.827	1833604440000
0	4913883092	3.828	2056654536000
0	4918009097	3.829	1823737912000
0	4922101262	3.83	835789120000
0	4926222668	3.831	270034928000
0	4930318158	3.832	237939912000
0	4934405059	3.833	3611775984000
0	4938483803	3.834	3670315192000
0	4942563093	3.835	3636459736000
0	4946677188	3.836	2124159760000
0	4950770711	3.837	2597557792000
0	4954896302	3.838	829392040000
0	4959008164	3.839	2049293416000
0	4963138442	3.84	1887136384000
0	4967270236	3.841	821719776000
0	4971410972	3.842	828888696000
0	4975534984	3.843	2620985032000
0	4979657348	3.844	877927232000
0	4983787559	3.845	1854061928000
0	4987924679	3.846	868443832000
0	4992065969	3.847	44616632000
0	4996211214	3.848	850350216000
0	5000377573	3.849	2694808888000
0	5004542053	3.85	59256232000
0	5008670795	3.851	828688240000
0	5012804866	3.852	2032860104000
0	5016949543	3.853	4393780904000
0	5021084203	3.854	35984424000
0	5025219648	3.855	43555704000
0	5029371156	3.856	1824530048000
0	5033470882	3.857	2638092616000
0	5037592259	3.858	22574896000
0	5041729537	3.859	2635057408000
0	5045838927	3.86	99403272000
0	5049933979	3.861	1856278928000
0	5054007305	3.862	51188912000
0	5058098384	3.863	3421880576000
0	5062199651	3.864	1818516800000
0	5066304719	3.865	873683456000
0	5070403043	3.866	1835276272000
0	5074499942	3.867	1243593504000
0	5078553564	3.868	1813489904000
0	5082625745	3.869	48053488000
0	5086714497	3.87	64307568000
0	5090782572	3.871	5396465472000
0	5094825418	3.872	47724992000
0	5098886098	3.873	2674823704000
0	5102951261	3.874	1052801856000
0	5107001127	3.875	3621880320000
0	5111053352	3.876	2837813000000
0	5115056360	3.877	36220944000
0	5119097677	3.878	65218576000
0	5123161438	3.879	846674464000
0	5127233820	3.88	879812112000
0	5131343988	3.881	1844172160000
0	5135438864	3.882	1848488824000
0	5139493004	3.883	854615360000
0	5143553434	3.884	5457814680000
0	5147591030	3.885	2629040248000
0	5151620488	3.886	5417180280000
0	5155635151	3.887	2298514344000
0	5159675372	3.888	1817061536000
0	5163726993	3.889	1616764752000
0	5167777371	3.89	1843245408000
0	5171818964	3.891	1811208048000
0	5175862213	3.892	833836504000
0	5179910556	3.893	257607720000
0	5183920480	3.894	42493416000
0	5187929788	3.895	496459792000
0	5191954715	3.896	248798376000
0	5195981447	3.897	2043708128000
0	5200016121	3.898	2614116712000
0	5204062188	3.899	2068909408000
0	5208091203	3.9	2607644280000
0	5212104178	3.901	844012912000
0	5216136775	3.902	1837644344000
0	5220167450	3.903	2614736712000
0	5224206550	3.904	2622910968000
0	5228269784	3.905	3855994424000
0	5232360126	3.906	2459096408000
0	5236449505	3.907	47438496000
0	5240515511	3.908	1903618520000
0	5244606402	3.909	1817772896000
0	5248670833	3.91	3837519520000
0	5252734664	3.911	101937992000
0	5256823434	3.912	889095400000
0	5260927715	3.913	1840875992000
0	5265020389	3.914	1829818440000
0	5269124657	3.915	2042918488000
0	5273241909	3.916	20915136000
0	5277364670	3.917	1843644304000
0	5281490704	3.918	80428920000
0	5285599843	3.919	1836826472000
0	5289683877	3.92	1838833832000
0	5293800622	3.921	1831271560000
0	5297925134	3.922	2621745528000
0	5302060518	3.923	4404281768000
0	5306176072	3.924	252782864000
0	5310296095	3.925	2631653936000
0	5314408263	3.926	1827400368000
0	5318502143	3.927	846730792000
0	5322622116	3.928	1066968720000
0	5326733177	3.929	3206736240000
0	5330845300	3.93	1891300264000
0	5334981401	3.931	28596024000
0	5339099698	3.932	42168680000
0	5343206967	3.933	34029976000
0	5347330671	3.934	3426852384000
0	5351457992	3.935	56932400000
0	5355583846	3.936	258481040000
0	5359734013	3.937	1825130496000
0	5363863349	3.938	821481224000
0	5367982914	3.939	2625088576000
0	5372126867	3.94	1815757264000
0	5376235463	3.941	47054792000
0	5380353833	3.942	261015696000
0	5384477239	3.943	1808326296000
0	5388581145	3.944	37433520000
0	5392712468	3.945	39425904000
0	5396827209	3.946	2610621168000
0	5400934444	3.947	2889750104000
0	5405049091	3.948	1062461560000
0	5409169854	3.949	1860554424000
0	5413314177	3.95	820888152000
0	5417419037	3.951	2603928272000
0	5421527983	3.952	3595705848000
0	5425648355	3.953	1844316552000
0	5429785274	3.954	134800184000
0	5433928035	3.955	2424398080000
0	5438042363	3.956	141152048000
0	5442154590	3.957	87511688000
0	5446237854	3.958	6989211104000
0	5450315418	3.959	259675632000
0	5454401321	3.96	62172600000
0	5458498767	3.961	100490656000
0	5462583160	3.962	98312840000
0	5466674118	3.963	2852426328000
0	5470767818	3.964	1894479968000
0	5474880355	3.965	1832441072000
0	5478965719	3.966	39135576000
0	5483024243	3.967	1824855640000
0	5487089411	3.968	839182720000
0	5491172259	3.969	47791760000
0	5495224022	3.97	833285496000
0	5499269783	3.971	1854102832000
0	5503335237	3.972	41379184000
0	5507385188	3.973	850631280000
0	5511446747	3.974	2050018144000
0	5515486693	3.975	101050448000
0	5519559110	3.976	47091296000
0	5523629373	3.977	37083048000
0	5527674275	3.978	3836317464000
0	5531744873	3.979	4398715352000
0	5535834605	3.98	3886702264000
0	5539918678	3.981	1835611944000
0	5544034826	3.982	259481192000
0	5548125081	3.983	2253128696000
0	5552210959	3.984	1810703080000
0	5556293200	3.985	4424194976000
0	5560384587	3.986	1832477328000
0	5564476290	3.987	3406528032000
0	5568542117	3.988	82245168000
0	5572611485	3.989	48199416000
0	5576687251	3.99	1864264024000
0	5580760065	3.991	40901008000
0	5584846781	3.992	3639853448000
0	5588929319	3.993	1824682696000
0	5593015170	3.994	75882200000
0	5597066659	3.995	36765504000
0	5601117676	3.996	1817003088000
0	5605183842	3.997	4992002992000
0	5609248703	3.998	82573384000
0	5613295527	3.999	1838614360000
0	5617359905	4	2650489992000
0	5621421456	4.001	57040288000
0	5625478528	4.002	34103216000
0	5629567674	4.003	3633230528000
0	5633646325	4.004	1825353224000
0	5637721584	4.005	3604241400000
0	5641789047	4.006	2279504416000
0	5645845057	4.007	1025961496000
0	5649928205	4.008	1857768264000
0	5654024136	4.009	38035360000
0	5658095977	4.01	2035499920000
0	5662168354	4.011	1874010784000
0	5666229813	4.012	1841012008000
0	5670295528	4.013	4627785000000
0	5674353289	4.014	31021320000
0	5678388135	4.015	51853008000
0	5682467570	4.016	2050923608000
0	5686570182	4.017	160250736000
0	5690654400	4.018	25676248000
0	5694728100	4.019	4424889200000
0	5698814384	4.02	2679692848000
0	5702918353	4.021	129401144000
0	5707020188	4.022	846377392000
0	5711116202	4.023	1827693464000
0	5715197570	4.024	5408331040000
0	5719269689	4.025	832579448000
0	5723349732	4.026	63987384000
0	5727439898	4.027	4620762336000
0	5731544734	4.028	1845090088000
0	5735661014	4.029	3608907120000
0	5739761965	4.03	1842000912000
0	5743884828	4.031	1839504832000
0	5747986428	4.032	26091344000
0	5752096180	4.033	48006488000
0	5756202412	4.034	2825358584000
0	5760302245	4.035	829537296000
0	5764387476	4.036	40517208000
0	5768457019	4.037	123230200000
0	5772547219	4.038	5646962584000
0	5776643491	4.039	3591091216000
0	5780738231	4.04	1634648552000
0	5784848436	4.041	33495600000
0	5788983495	4.042	1856385864000
0	5793097838	4.043	1827585480000
0	5797205010	4.044	47810488000
0	5801314856	4.045	887665592000
0	5805424391	4.046	62063064000
0	5809530516	4.047	373489208000
0	5813649675	4.048	3601833200000
0	5817773162	4.049	1878997360000
0	5821867395	4.05	2621322592000
0	5825956283	4.051	38156312000
0	5830032751	4.052	1111657720000
0	5834133181	4.053	1914583136000
0	5838199672	4.054	1817550416000
0	5842255941	4.055	3397906624000
0	5846321411	4.056	2890693048000
0	5850413621	4.057	1856279232000
0	5854507492	4.058	2109068856000
0	5858641234	4.059	2062026048000
0	5862766371	4.06	1833006776000
0	5866872821	4.061	2044513000000
0	5870980390	4.062	2608402328000
0	5875057896	4.063	50185656000
0	5879150550	4.064	831075672000
0	5883247132	4.065	22251784000
0	5887317607	4.066	1833970720000
0	5891404408	4.067	250792112000
0	5895462723	4.068	102992432000
0	5899581162	4.069	1848839448000
0	5903672634	4.07	2259840624000
0	5907751984	4.071	53196400000
0	5911838472	4.072	251068616000
0	5915900917	4.073	72997600000
0	5919928982	4.074	1615747360000
0	5923969845	4.075	46133632000
0	5928000671	4.076	3468226112000
0	5932052299	4.077	52617496000
0	5936114315	4.078	1619237680000
0	5940161050	4.079	1844716056000
0	5944186028	4.08	43570400000
0	5948250892	4.081	1817495816000
0	5952327246	4.082	35922264000
0	5956411369	4.083	264426024000
0	5960500703	4.084	1891881272000
0	5964608186	4.085	3602135840000
0	5968709821	4.086	3604435048000
0	5972839311	4.087	96964856000
0	5976946458	4.088	1814964488000
0	5981023381	4.089	1818695064000
0	5985137177	4.09	2858115960000
0	5989235999	4.091	4388062528000
0	5993334071	4.092	832322992000
0	5997424206	4.093	48789384000
0	6001514182	4.094	44678000000
0	6005612895	4.095	1850343728000
0	6009678562	4.096	1820712912000
0	6013760306	4.097	2107283040000
0	6017857398	4.098	62454560000
0	6021935456	4.099	3662139800000
0	6026030434	4.1	42738328000
0	6030133975	4.101	43197504000
0	6034260075	4.102	1085536968000
0	6038335509	4.103	67555528000
0	6042385365	4.104	57138448000
0	6046426807	4.105	1693136664000
0	6050466627	4.106	830377768000
0	6054527364	4.107	838333872000
0	6058571501	4.108	832169104000
0	6062606270	4.109	30249304000
0	6066626061	4.11	68054344000
0	6070636583	4.111	2603561280000
0	6074665729	4.112	3845892352000
0	6078686349	4.113	2613700856000
0	6082712955	4.114	2050035264000
0	6086754833	4.115	55372368000
0	6090782323	4.116	835068960000
0	6094781119	4.117	1823901344000
0	6098807520	4.118	44823920000
0	6102806022	4.119	1841952568000
0	6106801368	4.12	2647073480000
0	6110803270	4.121	4390622832000
0	6114807294	4.122	1828065064000
0	6118849825	4.123	1635772296000
0	6122866136	4.124	4063699504000
0	6126884985	4.125	1836292800000
0	6130883395	4.126	2608880560000
0	6134886164	4.127	2056670056000
0	6138845363	4.128	2824934264000
0	6142787709	4.129	4378824544000
0	6146745439	4.13	55411744000
0	6150699707	4.131	68728824000
0	6154633865	4.132	842261048000
0	6158562593	4.133	1841213272000
0	6162485437	4.134	1857466344000
0	6166407719	4.135	2051645760000
0	6170350128	4.136	1845025664000
0	6174298187	4.137	46085008000
0	6178237005	4.138	827976496000
0	6182174090	4.139	321517528000
0	6186120310	4.14	289394008000
0	6190097898	4.141	3610856032000
0	6194035209	4.142	4601390552000
0	6198006634	4.143	1831650600000
0	6201978483	4.144	41545416000
0	6205932343	4.145	33448776000
0	6209907523	4.146	1846313040000
0	6213877653	4.147	831891896000
0	6217866966	4.148	78123760000
0	6221835518	4.149	44244224000
0	6225802253	4.15	2664719656000
0	6229797491	4.151	825001680000
0	6233797513	4.152	832271984000
0	6237795929	4.153	46320280000
0	6241781404	4.154	36810616000
0	6245816520	4.155	3427316336000
0	6249854712	4.156	826891464000
0	6253878971	4.157	3610795200000
0	6257914982	4.158	57855768000
0	6261938681	4.159	1825176568000
0	6265988909	4.16	1888164168000
0	6270049470	4.161	1820867376000
0	6274107563	4.162	74383728000
0	6278145240	4.163	46020064000
0	6282191726	4.164	1853924128000
0	6286260121	4.165	58237888000
0	6290306320	4.166	842985648000
0	6294328827	4.167	3619038656000
0	6298351165	4.168	3622661096000
0	6302364768	4.169	1840713824000
0	6306388085	4.17	2649990656000
0	6310432093	4.171	825350984000
0	6314475153	4.172	31889784000
0	6318502911	4.173	39448792000
0	6322515418	4.174	2049499720000
0	6326554331	4.175	1824685240000
0	6330575968	4.176	44919400000
0	6334613617	4.177	1846987080000
0	6338665055	4.178	837384968000
0	6342710975	4.179	38902176000
0	6346774755	4.18	268663376000
0	6350817541	4.181	2601277440000
0	6354835810	4.182	1827995640000
0	6358849101	4.183	4395739120000
0	6362890831	4.184	1807262464000
0	6366939539	4.185	40399368000
0	6370975159	4.186	52630432000
0	6375004600	4.187	1075870032000
0	6379052838	4.188	269296664000
0	6383115021	4.189	2624155976000
0	6387147296	4.19	118817808000
0	6391184980	4.191	45814944000
0	6395228843	4.192	1825437888000
0	6399262768	4.193	829312528000
0	6403316937	4.194	845404232000
0	6407402435	4.195	2107616640000
0	6411466601	4.196	265084256000
0	6415521702	4.197	250240632000
0	6419596911	4.198	2616580152000
0	6423676301	4.199	1860828488000
0	6427727324	4.2	51628112000
0	6431799220	4.201	2621001840000
0	6435850421	4.202	28419728000
0	6439895931	4.203	28170592000
0	6443897152	4.204	42747584000
0	6447911349	4.205	1044040720000
0	6451932515	4.206	25236744000
0	6455948890	4.207	249455464000
0	6460001181	4.208	3610566304000
0	6464063913	4.209	5389287392000
0	6468087580	4.21	1809795408000
0	6472102460	4.211	1837928744000
0	6476115800	4.212	40880648000
0	6480134139	4.213	50152392000
0	6484127714	4.214	3601073872000
0	6488128801	4.215	252525352000
0	6492124380	4.216	50692464000
0	6496122045	4.217	21666248000
0	6500105123	4.218	845396048000
0	6504101771	4.219	3633631048000
0	6508099270	4.22	31385712000
0	6512103120	4.221	1055804064000
0	6516103535	4.222	1812725264000
0	6520143372	4.223	3623580984000
0	6524192736	4.224	1053245696000
0	6528213181	4.225	1855914648000
0	6532236890	4.226	1610180880000
0	6536248267	4.227	2829941848000
0	6540258731	4.228	485680344000
0	6544286833	4.229	1857429880000
0	6548337001	4.23	1681636112000
0	6552380990	4.231	820794928000
0	6556437313	4.232	3597912984000
0	6560480851	4.233	279136448000
0	6564537491	4.234	2851274864000
0	6568567127	4.235	348520856000
0	6572630506	4.236	108511232000
0	6576680956	4.237	1830510776000
0	6580742265	4.238	88773272000
0	6584777881	4.239	62324712000
0	6588824305	4.24	832806032000
0	6592912448	4.241	4431607400000
0	6596984357	4.242	2059876992000
0	6601066655	4.243	1821386824000
0	6605125021	4.244	3675253496000
0	6609191861	4.245	1636573824000
0	6613281702	4.246	5394109496000
0	6617360001	4.247	54289696000
0	6621432064	4.248	1865700216000
0	6625517546	4.249	1683039064000
0	6629614784	4.25	1824218440000
0	6633686895	4.251	84633016000
0	6637753019	4.252	3627591288000
0	6641803950	4.253	3611575504000
0	6645900934	4.254	1628628680000
0	6649983345	4.255	3675085056000
0	6654048777	4.256	94979832000
0	6658085805	4.257	3479474520000
0	6662160059	4.258	2618942240000
0	6666220010	4.259	2097479504000
0	6670250528	4.26	2834019904000
0	6674308669	4.261	839257344000
0	6678380595	4.262	3676531160000
0	6682429846	4.263	3603443896000
0	6686475062	4.264	1811900632000
0	6690532440	4.265	836031888000
0	6694587314	4.266	36227704000
0	6698645483	4.267	1844333624000
0	6702699650	4.268	860086656000
0	6706768747	4.269	2614512920000
0	6710835262	4.27	60888008000
0	6714895760	4.271	2065543184000
0	6718980515	4.272	3611101832000
0	6723086978	4.273	24748280000
0	6727178801	4.274	3843771848000
0	6731266634	4.275	2055497696000
0	6735319465	4.276	1836520480000
0	6739361348	4.277	55813024000
0	6743432356	4.278	1860014608000
0	6747491821	4.279	2042772680000
0	6751560101	4.28	2051213440000
0	6755615416	4.281	1037448872000
0	6759674433	4.282	3675723368000
0	6763718467	4.283	2267570640000
0	6767770135	4.284	251892048000
0	6771811987	4.285	36435960000
0	6775866206	4.286	4382156688000
0	6779895405	4.287	844135664000
0	6783927867	4.288	3636351488000
0	6787954500	4.289	316680384000
0	6792017813	4.29	1884851848000
0	6796075295	4.291	836370944000
0	6800118228	4.292	1835555032000
0	6804160816	4.293	1831747128000
0	6808200891	4.294	2051505952000
0	6812240636	4.295	3603910800000
0	6816293193	4.296	58512528000
0	6820339059	4.297	3620435664000
0	6824392364	4.298	6177808120000
0	6828422596	4.299	39569256000
0	6832452332	4.3	891809288000
0	6836484833	4.301	2629727312000
0	6840529037	4.302	825654096000
0	6844584736	4.303	1815844696000
0	6848659953	4.304	60137568000
0	6852709927	4.305	46748776000
0	6856739250	4.306	28608624000
0	6860786342	4.307	276426704000
0	6864884706	4.308	7987153464000
0	6868952760	4.309	1620001448000
0	6873028070	4.31	2612762688000
0	6877088947	4.311	2610048120000
0	6881165874	4.312	125421232000
0	6885247242	4.313	1622197168000
0	6889328889	4.314	1844231032000
0	6893427077	4.315	1817086992000
0	6897545630	4.316	3596627920000
0	6901622830	4.317	823381192000
0	6905697272	4.318	86335560000
0	6909785973	4.319	29423800000
0	6913877412	4.32	1881393216000
0	6917981232	4.321	6186182008000
0	6922055974	4.322	3622228752000
0	6926135887	4.323	1816424752000
0	6930194373	4.324	291497448000
0	6934291140	4.325	1043776416000
0	6938394298	4.326	1827692176000
0	6942491210	4.327	115040472000
0	6946610947	4.328	80429304000
0	6950724287	4.329	1832089520000
0	6954851414	4.33	97219176000
0	6958957063	4.331	1856441576000
0	6963051759	4.332	3606511448000
0	6967124082	4.333	1822210296000
0	6971193977	4.334	55415424000
0	6975272636	4.335	1824392088000
0	6979349810	4.336	1841240656000
0	6983438668	4.337	844365360000
0	6987523277	4.338	851903632000
0	6991628646	4.339	1827958352000
0	6995754732	4.34	821345928000
0	6999835978	4.341	820840496000
0	7003919482	4.342	2062452304000
0	7007988837	4.343	32435768000
0	7012064873	4.344	1622036576000
0	7016148631	4.345	1855017560000
0	7020211072	4.346	116260320000
0	7024293983	4.347	2063830744000
0	7028388457	4.348	3595886408000
0	7032489124	4.349	1819394224000
0	7036591340	4.35	260153536000
0	7040706853	4.351	2838844912000
0	7044809395	4.352	4451124512000
0	7048920577	4.353	1816751544000
0	7053033085	4.354	1832782840000
0	7057142830	4.355	1830791280000
0	7061243202	4.356	1109961216000
0	7065401372	4.357	1822029984000
0	7069560158	4.358	46099472000
0	7073702713	4.359	1835679312000
0	7077820182	4.36	2112552456000
0	7081946250	4.361	46421144000
0	7086055825	4.362	39950096000
0	7090171690	4.363	3639581896000
0	7094357957	4.364	1850040168000
0	7098501242	4.365	1828797088000
0	7102628422	4.366	1818127016000
0	7106775053	4.367	3612422536000
0	7110936667	4.368	31582968000
0	7115069969	4.369	1840925632000
0	7119164160	4.37	839129640000
0	7123279589	4.371	860558464000
0	7127416469	4.372	4408618432000
0	7131525767	4.373	816019328000
0	7135628320	4.374	58714632000
0	7139707818	4.375	33721320000
0	7143823366	4.376	1828757896000
0	7147947275	4.377	45216064000
0	7152071403	4.378	88873336000
0	7156202828	4.379	851244928000
0	7160314778	4.38	2627216840000
0	7164440595	4.381	3395617416000
0	7168540749	4.382	1843475512000
0	7172646625	4.383	2625393008000
0	7176725830	4.384	250891128000
0	7180852614	4.385	1838241952000
0	7185003968	4.386	51538848000
0	7189123017	4.387	251311496000
0	7193262265	4.388	2653810000000
0	7197424371	4.389	41858008000
0	7201560526	4.39	44896592000
0	7205701459	4.391	86216680000
0	7209862493	4.392	835499512000
0	7214029551	4.393	47490896000
0	7218184992	4.394	266268328000
0	7222288907	4.395	2888886064000
0	7226391820	4.396	35099120000
0	7230469088	4.397	1839483976000
0	7234576154	4.398	44633432000
0	7238652286	4.399	2831652104000
0	7242762032	4.4	1820397920000
0	7246857449	4.401	42494384000
0	7250895118	4.402	4394987680000
0	7254947473	4.403	836254904000
0	7258969483	4.404	841951848000
0	7262983502	4.405	1832151640000
0	7266974103	4.406	251035472000
0	7270970795	4.407	2061675472000
0	7274951679	4.408	1032763856000
0	7278954943	4.409	2605683904000
0	7282965195	4.41	272386448000
0	7286990160	4.411	6973360304000
0	7291016096	4.412	1835745856000
0	7294991638	4.413	260986648000
0	7298973399	4.414	816904768000
0	7302971518	4.415	25047520000
0	7306987889	4.416	2259031312000
0	7310973556	4.417	65424728000
0	7314960139	4.418	2043733496000
0	7318996836	4.419	33336256000
0	7322997647	4.42	267314848000
0	7327011014	4.421	1828216832000
0	7331024379	4.422	1054820768000
0	7335045629	4.423	1035568624000
0	7339078980	4.424	40189448000
0	7343103881	4.425	96131208000
0	7347163125	4.426	1834558688000
0	7351241862	4.427	4638586456000
0	7355291665	4.428	1848488448000
0	7359337689	4.429	73074040000
0	7363376212	4.43	1823682760000
0	7367439773	4.431	825677208000
0	7371461009	4.432	291924064000
0	7375460322	4.433	3605603800000
0	7379471454	4.434	2617300320000
0	7383501592	4.435	3068899360000
0	7387535170	4.436	1803962008000
0	7391594245	4.437	1854986360000
0	7395631277	4.438	1824777312000
0	7399677821	4.439	838330616000
0	7403738328	4.44	2603005360000
0	7407801388	4.441	2853039296000
0	7411852773	4.442	1619407832000
0	7415922771	4.443	5403231224000
0	7419960288	4.444	2055992080000
0	7424009085	4.445	48144824000
0	7428041344	4.446	1833224848000
0	7432076190	4.447	1829169584000
0	7436119867	4.448	2840787848000
0	7440195642	4.449	45030792000
0	7444239356	4.45	2608971096000
0	7448279229	4.451	58494104000
0	7452323006	4.452	55349264000
0	7456399334	4.453	1855989344000
0	7460462907	4.454	1850079864000
0	7464540373	4.455	3624212656000
0	7468596108	4.456	2614850808000
0	7472653714	4.457	3629071424000
0	7476745687	4.458	3602360000000
0	7480829794	4.459	511227560000
0	7484898713	4.46	826551184000
0	7488943868	4.461	1829982976000
0	7492994614	4.462	2065688016000
0	7497033955	4.463	52806088000
0	7501077793	4.464	488036816000
0	7505139776	4.465	48976312000
0	7509243069	4.466	5397952488000
0	7513331544	4.467	852278080000
0	7517395919	4.468	53893064000
0	7521489446	4.469	34528912000
0	7525595463	4.47	1845007504000
0	7529659004	4.471	3846399336000
0	7533729390	4.472	4399856224000
0	7537779594	4.473	3850663896000
0	7541838395	4.474	263029344000
0	7545880740	4.475	1841350264000
0	7549957079	4.476	44074448000
0	7554031868	4.477	854606648000
0	7558138924	4.478	835052392000
0	7562245592	4.479	1623359632000
0	7566330455	4.48	39045952000
0	7570401129	4.481	53874688000
0	7574457240	4.482	28138520000
0	7578520125	4.483	1633223728000
0	7582557916	4.484	3040321400000
0	7586591245	4.485	1828825808000
0	7590635413	4.486	3448220904000
0	7594663445	4.487	843441520000
0	7598689122	4.488	1839865848000
0	7602717720	4.489	2038389904000
0	7606740990	4.49	7183861440000
0	7610773662	4.491	1824431600000
0	7614784278	4.492	2633554072000
0	7618780146	4.493	5385689800000
0	7622794707	4.494	1825910144000
0	7626792707	4.495	3394289760000
0	7630786273	4.496	4405970496000
0	7634777004	4.497	1820870152000
0	7638764770	4.498	2837567584000
0	7642731814	4.499	49536584000
0	7646705347	4.5	2611942168000
0	7650696347	4.501	58706520000
0	7654660002	4.502	823622256000
0	7658622351	4.503	41998808000
0	7662597532	4.504	380921016000
0	7666577852	4.505	5399318408000
0	7670564365	4.506	29265408000
0	7674559012	4.507	3599393216000
0	7678556492	4.508	836022192000
0	7682558670	4.509	37128000000
0	7686581197	4.51	40282696000
0	7690614984	4.511	1829122320000
0	7694668814	4.512	3608042672000
0	7698707787	4.513	1817065848000
0	7702761490	4.514	4186544528000
0	7706783564	4.515	44377264000
0	7710806312	4.516	122521216000
0	7714870144	4.517	316397728000
0	7718917992	4.518	3613680048000
0	7722955266	4.519	29809480000
0	7726976231	4.52	5392027344000
0	7731010656	4.521	1812593992000
0	7735038458	4.522	1047507832000
0	7739085163	4.523	2837288632000
0	7743095438	4.524	271056568000
0	7747103091	4.525	3603690552000
0	7751116434	4.526	51144432000
0	7755137939	4.527	46757184000
0	7759167556	4.528	3619950520000
0	7763187094	4.529	1625039128000
0	7767203958	4.53	1612512776000
0	7771223365	4.531	49892480000
0	7775234331	4.532	1854235592000
0	7779275573	4.533	1062713176000
0	7783295745	4.534	57900952000
0	7787319533	4.535	3825478680000
0	7791336829	4.536	2603413864000
0	7795367509	4.537	3609586200000
0	7799375374	4.538	2620290464000
0	7803418350	4.539	37919784000
0	7807450473	4.54	2037987344000
0	7811497788	4.541	815208112000
0	7815574438	4.542	5170145976000
0	7819616249	4.543	2630851720000
0	7823677707	4.544	91496216000
0	7827731044	4.545	257912144000
0	7831760768	4.546	2636030608000
0	7835825003	4.547	1825787776000
0	7839892606	4.548	3831849880000
0	7843969384	4.549	48398208000
0	7848052866	4.55	3613082968000
0	7852139338	4.551	1624615008000
0	7856235719	4.552	2044728624000
0	7860299140	4.553	831328176000
0	7864399794	4.554	478632600000
0	7868474494	4.555	2827586840000
0	7872542576	4.556	52567176000
0	7876599543	4.557	3822791360000
0	7880630434	4.558	814952496000
0	7884725194	4.559	59223016000
0	7888764181	4.56	64997336000
0	7892793772	4.561	2058509432000
0	7896831974	4.562	1833038664000
0	7900879151	4.563	5435962200000
0	7904880944	4.564	2044899104000
0	7908884892	4.565	490790304000
0	7912872581	4.566	53236840000
0	7916857526	4.567	63456640000
0	7920837678	4.568	2616777928000
0	7924852564	4.569	51975936000
0	7928825556	4.57	33216976000
0	7932829667	4.571	2697920504000
0	7936841543	4.572	41714232000
0	7940845799	4.573	54015048000
0	7944836982	4.574	3902183672000
0	7948825035	4.575	1817228912000
0	7952821269	4.576	40288888000
0	7956835138	4.577	2681277176000
0	7960859505	4.578	37162648000
0	7964876025	4.579	7253894144000
0	7968884292	4.58	839611040000
0	7972907008	4.581	51969512000
0	7976916902	4.582	1631831312000
0	7980911221	4.583	253858632000
0	7984911221	4.584	3606064544000
0	7988938247	4.585	3599992400000
0	7992945997	4.586	1839700616000
0	7996927677	4.587	1842875632000
0	8000932735	4.588	1827031216000
0	8004937734	4.589	55807200000
0	8008930507	4.59	56778744000
0	8012930657	4.591	843199784000
0	8016923274	4.592	1815586736000
0	8020939295	4.593	3599191264000
0	8024944777	4.594	59235144000
0	8028989864	4.595	2049563312000
0	8033034880	4.596	1813628200000
0	8037102314	4.597	1825645920000
0	8041148343	4.598	77351984000
0	8045200747	4.599	3600771696000
0	8049270661	4.6	73091128000
0	8053328658	4.601	55884400000
0	8057403170	4.602	33925536000
0	8061478388	4.603	5200845408000
0	8065540061	4.604	900265600000
0	8069592383	4.605	120648288000
0	8073660478	4.606	36513368000
0	8077726054	4.607	2878575448000
0	8081803679	4.608	58753352000
0	8085918478	4.609	117772040000
0	8090008821	4.61	1827138832000
0	8094089901	4.611	841531552000
0	8098228980	4.612	82380992000
0	8102337108	4.613	819649664000
0	8106440897	4.614	33773160000
0	8110546595	4.615	1828553376000
0	8114668707	4.616	38723920000
0	8118784909	4.617	3631594808000
0	8122893581	4.618	1835608448000
0	8127001034	4.619	1816320752000
0	8131083506	4.62	1623356776000
0	8135164871	4.621	1888622256000
0	8139266846	4.622	1835208592000
0	8143340435	4.623	50857168000
0	8147444200	4.624	902539256000
0	8151541871	4.625	58513768000
0	8155647572	4.626	2610532408000
0	8159746561	4.627	3599951840000
0	8163865054	4.628	3603795336000
0	8167991874	4.629	38965024000
0	8172098603	4.63	60225312000
0	8176217450	4.631	1882593720000
0	8180323975	4.632	1807863384000
0	8184422489	4.633	1886001736000
0	8188540861	4.634	2600294912000
0	8192666351	4.635	1833401560000
0	8196801780	4.636	246762720000
0	8200955220	4.637	1829166728000
0	8205074944	4.638	91266760000
0	8209217735	4.639	3643776368000
0	8213377672	4.64	2609986608000
0	8217550976	4.641	4408323992000
0	8221724838	4.642	25249520000
0	8225901064	4.643	3608056872000
0	8230105768	4.644	2055762112000
0	8234300903	4.645	97559616000
0	8238493246	4.646	43829808000
0	8242714536	4.647	44797016000
0	8246886204	4.648	3600223496000
0	8251054499	4.649	1847170568000
0	8255226511	4.65	3604826776000
0	8259439018	4.651	34872640000
0	8263645797	4.652	2041796616000
0	8267846175	4.653	1839322072000
0	8272076985	4.654	1845460920000
0	8276315255	4.655	3679782040000
0	8280565980	4.656	3670628440000
0	8284776685	4.657	5387759784000
0	8288983728	4.658	836730800000
0	8293184299	4.659	3608561512000
0	8297351598	4.66	249895440000
0	8301527371	4.661	52717864000
0	8305754981	4.662	5241520864000
0	8309945726	4.663	30609912000
0	8314144395	4.664	101498272000
0	8318353551	4.665	1824699632000
0	8322550460	4.666	43799280000
0	8326765354	4.667	1825234528000
0	8330961974	4.668	40601856000
0	8335130310	4.669	2623183840000
0	8339275042	4.67	910551840000
0	8343443905	4.671	48330608000
0	8347580610	4.672	4460468112000
0	8351732442	4.673	1887014632000
0	8355908850	4.674	377747456000
0	8360095594	4.675	1829850888000
0	8364289111	4.676	2619102200000
0	8368463475	4.677	1820939112000
0	8372651741	4.678	2626775808000
0	8376832058	4.679	1821825944000
0	8380995378	4.68	265146816000
0	8385142958	4.681	47290856000
0	8389310883	4.682	866997496000
0	8393490579	4.683	1835311736000
0	8397690826	4.684	2066061224000
0	8401878286	4.685	1823129768000
0	8406029508	4.686	102455488000
0	8410179797	4.687	1839163896000
0	8414311317	4.688	36504688000
0	8418420638	4.689	3605951432000
0	8422509631	4.69	3622426600000
0	8426614169	4.691	37955000000
0	8430741905	4.692	37748944000
0	8434889119	4.693	3611165944000
0	8439040155	4.694	56451016000
0	8443187408	4.695	2612473344000
0	8447340668	4.696	3622074448000
0	8451508815	4.697	49702904000
0	8455663335	4.698	1844264936000
0	8459819416	4.699	6174482592000
0	8463972383	4.7	1825475016000
0	8468109924	4.701	44127664000
0	8472273296	4.702	48368744000
0	8476400362	4.703	25769328000
0	8480535948	4.704	838027104000
0	8484665475	4.705	3608310336000
0	8488818093	4.706	3625717480000
0	8492951242	4.707	260486968000
0	8497076518	4.708	37847496000
0	8501217599	4.709	2638972952000
0	8505338531	4.71	3601456632000
0	8509462659	4.711	1827965864000
0	8513565905	4.712	2619469408000
0	8517678157	4.713	2833644040000
0	8521807228	4.714	2088115864000
0	8525935124	4.715	3647579696000
0	8530060745	4.716	50059520000
0	8534190924	4.717	30697176000
0	8538345968	4.718	826384608000
0	8542504888	4.719	1892459968000
0	8546678796	4.72	3594613040000
0	8550850079	4.721	65081200000
0	8554978250	4.722	2039379608000
0	8559146329	4.723	1049520080000
0	8563307654	4.724	176038736000
0	8567457281	4.725	2619125696000
0	8571625858	4.726	4394210472000
0	8575796221	4.727	7450047056000
0	8579970732	4.728	3813162888000
0	8584134242	4.729	1880605368000
0	8588293974	4.73	2291670096000
0	8592439988	4.731	2835358856000
0	8596603918	4.732	1834247584000
0	8600801011	4.733	69007640000
0	8604952581	4.734	1844348600000
0	8609106907	4.735	40723800000
0	8613258045	4.736	2843178056000
0	8617433092	4.737	116524272000
0	8621596425	4.738	2628205752000
0	8625734884	4.739	2050976608000
0	8629863368	4.74	2690004264000
0	8634000556	4.741	888788128000
0	8638126705	4.742	3894882976000
0	8642224241	4.743	3849886624000
0	8646333001	4.744	3197025216000
0	8650451942	4.745	2627948800000
0	8654581084	4.746	61793536000
0	8658704136	4.747	51383208000
0	8662845953	4.748	37074280000
0	8666992950	4.749	119042120000
0	8671131262	4.75	105221048000
0	8675263988	4.751	3198718576000
0	8679386861	4.752	1840923200000
0	8683473613	4.753	3603961744000
0	8687563363	4.754	50839856000
0	8691641714	4.755	58669680000
0	8695735508	4.756	39997248000
0	8699823716	4.757	55647368000
0	8703903607	4.758	47815432000
0	8708017176	4.759	1831268680000
0	8712105717	4.76	1112318776000
0	8716197582	4.761	61005600000
0	8720261756	4.762	4389511936000
0	8724347953	4.763	3414409192000
0	8728418032	4.764	54699296000
0	8732503178	4.765	2310632360000
0	8736598214	4.766	854300080000
0	8740702122	4.767	37785360000
0	8744774683	4.768	1838906496000
0	8748865860	4.769	54070736000
0	8752963401	4.77	50820880000
0	8757034998	4.771	1812437096000
0	8761105458	4.772	2635779168000
0	8765147048	4.773	1826606640000
0	8769194073	4.774	266773600000
0	8773241557	4.775	4616690808000
0	8777279027	4.776	42100936000
0	8781349717	4.777	40865552000
0	8785377974	4.778	105509008000
0	8789426457	4.779	24392632000
0	8793475911	4.78	2051189088000
0	8797516814	4.781	79790736000
0	8801580570	4.782	897187376000
0	8805644048	4.783	3623560512000
0	8809737698	4.784	326249008000
0	8813823424	4.785	1061562208000
0	8817904098	4.786	6184480112000
0	8821986989	4.787	85482288000
0	8826053189	4.788	251138752000
0	8830127223	4.789	2621774928000
0	8834172435	4.79	1030202760000
0	8838210011	4.791	819863360000
0	8842261898	4.792	838214424000
0	8846342907	4.793	1834034648000
0	8850462127	4.794	85000456000
0	8854603893	4.795	3618784864000
0	8858751720	4.796	47548480000
0	8862881840	4.797	2632381208000
0	8866998369	4.798	884542232000
0	8871116693	4.799	2823216912000
0	8875227448	4.8	5389429112000
0	8879328269	4.801	3615400312000
0	8883414223	4.802	871501952000
0	8887523934	4.803	29175064000
0	8891581139	4.804	45992440000
0	8895636446	4.805	266049736000
0	8899692940	4.806	4383124184000
0	8903759019	4.807	1807437016000
0	8907819404	4.808	5391091456000
0	8911914652	4.809	1825275592000
0	8915988932	4.81	1836931144000
0	8920062621	4.811	2633630680000
0	8924130538	4.812	30574416000
0	8928189270	4.813	3688826864000
0	8932284331	4.814	5408593128000
0	8936353681	4.815	3641419832000
0	8940398724	4.816	273845352000
0	8944481555	4.817	874686184000
0	8948571373	4.818	271893552000
0	8952686562	4.819	4426657976000
0	8956791470	4.82	36411696000
0	8960915248	4.821	4405034240000
0	8965040186	4.822	111764560000
0	8969163587	4.823	837937056000
0	8973283294	4.824	1048084240000
0	8977388574	4.825	57741312000
0	8981486385	4.826	843660480000
0	8985620998	4.827	38539592000
0	8989748991	4.828	840164792000
0	8993884653	4.829	266601480000
0	8998014866	4.83	1830211904000
0	9002130514	4.831	52715688000
0	9006234673	4.832	45926760000
0	9010312787	4.833	1838449784000
0	9014383769	4.834	843749032000
0	9018455476	4.835	1828231328000
0	9022530683	4.836	828783560000
0	9026593137	4.837	1825904536000
0	9030622108	4.838	2839878176000
0	9034651728	4.839	1842086112000
0	9038677546	4.84	1845365560000
0	9042690473	4.841	70650816000
0	9046749486	4.842	269065704000
0	9050789529	4.843	2703246232000
0	9054829459	4.844	269052048000
0	9058883123	4.845	2654435568000
0	9062928211	4.846	4404646376000
0	9066975752	4.847	3603536720000
0	9070998801	4.848	5393266072000
0	9075021947	4.849	2603694312000
0	9079037384	4.85	3600899664000
0	9083077365	4.851	1823460776000
0	9087136277	4.852	2613002800000
0	9091179823	4.853	811400392000
0	9095219734	4.854	849678464000
0	9099246684	4.855	1877356624000
0	9103283451	4.856	1062116352000
0	9107317404	4.857	480356352000
0	9111344413	4.858	92695528000
0	9115369083	4.859	1814404936000
0	9119364096	4.86	1821336184000
0	9123360732	4.861	2605257416000
0	9127349108	4.862	855221704000
0	9131366685	4.863	3836864704000
0	9135377296	4.864	4207561064000
0	9139417301	4.865	1835186904000
0	9143438327	4.866	4415562344000
0	9147432308	4.867	3600327480000
0	9151441839	4.868	39668632000
0	9155446162	4.869	3866574192000
0	9159447844	4.87	3903747848000
0	9163470872	4.871	832619944000
0	9167479228	4.872	4250921040000
0	9171466902	4.873	1836676936000
0	9175480547	4.874	1046002328000
0	9179495901	4.875	1842861544000
0	9183511520	4.876	36487952000
0	9187522090	4.877	62063016000
0	9191546052	4.878	255543880000
0	9195578069	4.879	26622544000
0	9199578210	4.88	46949208000
0	9203584845	4.881	2624658408000
0	9207606685	4.882	1810420504000
0	9211607101	4.883	1821009696000
0	9215615732	4.884	853111592000
0	9219631355	4.885	832990024000
0	9223641132	4.886	5610045616000
0	9227644107	4.887	1838036248000
0	9231640061	4.888	857396416000
0	9235670958	4.889	1335055008000
0	9239685146	4.89	824539472000
0	9243704065	4.891	40313728000
0	9247733334	4.892	1813093256000
0	9251766893	4.893	3632159968000
0	9255822771	4.894	3845586976000
0	9259871141	4.895	1825948848000
0	9263915689	4.896	38021936000
0	9267946645	4.897	3593436080000
0	9272012648	4.898	1838681272000
0	9276056011	4.899	29618416000
0	9280101126	4.9	831009864000
0	9284135360	4.901	3631349880000
0	9288177726	4.902	832581344000
0	9292197506	4.903	1808777536000
0	9296187920	4.904	2629719176000
0	9300177730	4.905	3664681872000
0	9304156189	4.906	243377624000
0	9308140353	4.907	254784512000
0	9312160107	4.908	107908264000
0	9316181715	4.909	2408720472000
0	9320170962	4.91	3425847608000
0	9324183232	4.911	48700680000
0	9328175955	4.912	255294664000
0	9332182208	4.913	3622339864000
0	9336167689	4.914	3618594200000
0	9340177689	4.915	901648584000
0	9344205467	4.916	281252048000
0	9348251692	4.917	2674339744000
0	9352311464	4.918	2634783896000
0	9356357005	4.919	1046779624000
0	9360398121	4.92	3660500912000
0	9364446216	4.921	1861124096000
0	9368474057	4.922	2096342792000
0	9372504207	4.923	1844359816000
0	9376559447	4.924	1819779912000
0	9380633046	4.925	33944176000
0	9384705033	4.926	832878528000
0	9388770159	4.927	824865184000
0	9392844309	4.928	2606235752000
0	9396907693	4.929	844448296000
0	9400984121	4.93	43056672000
0	9405069393	4.931	3448699872000
0	9409155357	4.932	830727864000
0	9413228353	4.933	835434120000
0	9417289978	4.934	2044485184000
0	9421342581	4.935	5408639160000
0	9425420299	4.936	3680526928000
0	9429505113	4.937	1929273504000
0	9433582475	4.938	97500800000
0	9437662330	4.939	57958512000
0	9441751995	4.94	5413713312000
0	9445801968	4.941	1809054896000
0	9449852043	4.942	832416656000
0	9453861956	4.943	821492248000
0	9457867667	4.944	2048188208000
0	9461890705	4.945	888388616000
0	9465887464	4.946	827118440000
0	9469897871	4.947	41447512000
0	9473903650	4.948	3606585400000
0	9477903188	4.949	57826744000
0	9481916981	4.95	2614874272000
0	9485922286	4.951	271272896000
0	9489935975	4.952	52547424000
0	9493954438	4.953	4405604880000
0	9497971914	4.954	3612945392000
0	9501989040	4.955	42009504000
0	9506002941	4.956	2615070024000
0	9510029159	4.957	53482720000
0	9514059818	4.958	1838555944000
0	9518091284	4.959	61097120000
0	9522109747	4.96	2635580032000
0	9526145896	4.961	3624016856000
0	9530166977	4.962	1852654824000
0	9534198020	4.963	104557408000
0	9538228822	4.964	60916544000
0	9542273356	4.965	53019488000
0	9546303804	4.966	1822860888000
0	9550341387	4.967	268606728000
0	9554349192	4.968	2610801848000
0	9558360577	4.969	2617385512000
0	9562395786	4.97	321018896000
0	9566417653	4.971	486672056000
0	9570450136	4.972	856554680000
0	9574483604	4.973	861523160000
0	9578519397	4.974	1835879640000
0	9582543061	4.975	257653688000
0	9586556926	4.976	3617327400000
0	9590584607	4.977	1818591784000
0	9594604131	4.978	255236504000
0	9598638064	4.979	1660976560000
0	9602693703	4.98	1832947728000
0	9606751671	4.981	260088032000
0	9610822753	4.982	3608554824000
0	9614867027	4.983	3614657448000
0	9618911206	4.984	39708352000
0	9622977726	4.985	60522552000
0	9627033350	4.986	835732576000
0	9631067404	4.987	2624274688000
0	9635108322	4.988	1836301896000
0	9639149542	4.989	51036384000
0	9643209972	4.99	4395445064000
0	9647302485	4.991	1821971984000
0	9651369328	4.992	3619357864000
0	9655423373	4.993	125915400000
0	9659479450	4.994	1906066208000
0	9663532398	4.995	839124392000
0	9667582575	4.996	1827199920000
0	9671639421	4.997	3846933384000
0	9675709514	4.998	3612845216000
0	9679774292	4.999	498405896000
0	9683858138	5	89399752000
0	9687903963	5.001	3824772176000
0	9691947277	5.002	1827774440000
0	9695983937	5.003	1675701648000
0	9700011103	5.004	3832830448000
0	9704056901	5.005	2631488800000
0	9708136618	5.006	260292848000
0	9712220773	5.007	846487024000
0	9716303160	5.008	4435915496000
0	9720411717	5.009	1822509200000
0	9724488634	5.01	2045998544000
0	9728568731	5.011	2038368864000
0	9732637961	5.012	35118360000
0	9736725891	5.013	4470749704000
0	9740813613	5.014	2616715096000
0	9744872592	5.015	1832859024000
0	9748934402	5.016	1834488832000
0	9753014754	5.017	3625457312000
0	9757093387	5.018	1834057064000
0	9761144243	5.019	39013808000
0	9765182411	5.02	1813026680000
0	9769222845	5.021	55004744000
0	9773267927	5.022	1846407896000
0	9777319942	5.023	2622642872000
0	9781376020	5.024	1815955344000
0	9785404179	5.025	71292632000
0	9789435558	5.026	42389616000
0	9793475887	5.027	1863184032000
0	9797509588	5.028	1815052256000
0	9801563396	5.029	1879305752000
0	9805601706	5.03	2055566432000
0	9809611838	5.031	3604181144000
0	9813644031	5.032	264586984000
0	9817655312	5.033	94307968000
0	9821693447	5.034	860793872000
0	9825732052	5.035	4405588728000
0	9829755533	5.036	2621491528000
0	9833791640	5.037	53141448000
0	9837845196	5.038	2047498488000
0	9841878125	5.039	4387510496000
0	9845934094	5.04	46914528000
0	9850008737	5.041	4409952632000
0	9854088193	5.042	2108334520000
0	9858175853	5.043	44521728000
0	9862237474	5.044	2045395576000
0	9866291156	5.045	3200921272000
0	9870341957	5.046	263486288000
0	9874404035	5.047	43078896000
0	9878471957	5.048	38905632000
0	9882541184	5.049	1118873568000
0	9886631836	5.05	2414955600000
0	9890705342	5.051	45796592000
0	9894788131	5.052	49750224000
0	9898851692	5.053	2615721328000
0	9902905701	5.054	1835719352000
0	9906962582	5.055	42492016000
0	9910993607	5.056	7688201896000
0	9915053951	5.057	99124880000
0	9919130955	5.058	40435528000
0	9923212556	5.059	47057672000
0	9927283207	5.06	4245404048000
0	9931378346	5.061	2044401624000
0	9935470217	5.062	1814540856000
0	9939533505	5.063	53550320000
0	9943610052	5.064	2635931800000
0	9947695881	5.065	1836522736000
0	9951786625	5.066	2840781728000
0	9955856250	5.067	4427729688000
0	9959949924	5.068	4650209688000
0	9964062102	5.069	2633266496000
0	9968201861	5.07	1817710640000
0	9972370404	5.071	1832368304000
0	9976506190	5.072	30177848000
0	9980670093	5.073	2640078432000
0	9984834862	5.074	851317064000
0	9989022671	5.075	64573872000
0	9993235373	5.076	2841253632000
0	9997422401	5.077	2619102544000
0	10001625166	5.078	314516760000
0	10005846118	5.079	4622442632000
0	10010056733	5.08	2614251704000
0	10014265747	5.081	43984600000
0	10018468525	5.082	56268528000
0	10022690051	5.083	1817408856000
0	10026913740	5.084	2723259176000
0	10031148309	5.085	1823031848000
0	10035359457	5.086	3607313976000
0	10039603106	5.087	36755632000
0	10043858248	5.088	850592384000
0	10048087210	5.089	3603784096000
0	10052333488	5.09	1830568376000
0	10056588500	5.091	2626369256000
0	10060858212	5.092	850310096000
0	10065123152	5.093	4385139272000
0	10069382471	5.094	51181656000
0	10073606956	5.095	1812635664000
0	10077845605	5.096	270215864000
0	10082090470	5.097	3611163392000
0	10086326406	5.098	2837185712000
0	10090531362	5.099	821526080000
0	10094786093	5.1	72917648000
0	10099048000	5.101	42999120000
0	10103304994	5.102	818245016000
0	10107564930	5.103	4047763656000
0	10111790355	5.104	2622406616000
0	10116037059	5.105	38277472000
0	10120279718	5.106	3603313560000
0	10124534768	5.107	2622456960000
0	10128804706	5.108	2042661888000
0	10133044061	5.109	1837139856000
0	10137271030	5.11	31405920000
0	10141496897	5.111	48469448000
0	10145720696	5.112	122850168000
0	10149928541	5.113	66194480000
0	10154122430	5.114	828626488000
0	10158295776	5.115	2823854480000
0	10162462737	5.116	880430136000
0	10166644910	5.117	2026537952000
0	10170818399	5.118	1816406912000
0	10174989188	5.119	47383504000
0	10179174208	5.12	2042417832000
0	10183359612	5.121	99428848000
0	10187568366	5.122	5816364688000
0	10191786849	5.123	1044706256000
0	10196005522	5.124	1668226240000
0	10200236727	5.125	37106312000
0	10204466387	5.126	3631474288000
0	10208687316	5.127	37116376000
0	10212916794	5.128	849482200000
0	10217163398	5.129	1826708376000
0	10221401667	5.13	39325496000
0	10225667758	5.131	52882304000
0	10229924454	5.132	819424112000
0	10234176578	5.133	2836039472000
0	10238421860	5.134	829831528000
0	10242677412	5.135	841993584000
0	10246922042	5.136	3819682776000
0	10251158697	5.137	73984296000
0	10255417268	5.138	63504880000
0	10259652714	5.139	4477119752000
0	10263848955	5.14	24085376000
0	10268044764	5.141	1853937320000
0	10272250516	5.142	823453384000
0	10276455117	5.143	271063704000
0	10280631374	5.144	3599919288000
0	10284776463	5.145	1042536448000
0	10288933192	5.146	834118280000
0	10293088100	5.147	4403321400000
0	10297234796	5.148	2055669072000
0	10301358296	5.149	831228712000
0	10305464700	5.15	57497528000
0	10309591067	5.151	351108128000
0	10313689378	5.152	2842721320000
0	10317792045	5.153	74758960000
0	10321918402	5.154	55631656000
0	10326035585	5.155	1832249264000
0	10330144802	5.156	1828332496000
0	10334226554	5.157	819822216000
0	10338344881	5.158	30337528000
0	10342459130	5.159	250663120000
0	10346566355	5.16	99880976000
0	10350697969	5.161	3120082488000
0	10354844198	5.162	832537944000
0	10358991957	5.163	3612712544000
0	10363125102	5.164	263043024000
0	10367264215	5.165	2606956448000
0	10371418901	5.166	834375800000
0	10375580171	5.167	306455064000
0	10379724603	5.168	1727431024000
0	10383844520	5.169	5635659808000
0	10387985078	5.17	45721808000
0	10392143962	5.171	251943168000
0	10396310192	5.172	43867528000
0	10400480574	5.173	1819301168000
0	10404627911	5.174	1814018256000
0	10408807299	5.175	47671408000
0	10412973789	5.176	1818438256000
0	10417147963	5.177	36459224000
0	10421296877	5.178	2610941808000
0	10425489873	5.179	853479808000
0	10429670867	5.18	1830709080000
0	10433824223	5.181	3598697936000
0	10437959666	5.182	1815613872000
0	10442095202	5.183	833791896000
0	10446222771	5.184	2037056192000
0	10450388839	5.185	35340560000
0	10454546807	5.186	844228152000
0	10458696243	5.187	37286208000
0	10462850293	5.188	3633920696000
0	10466990354	5.189	258581592000
0	10471126369	5.19	271699984000
0	10475250081	5.191	1045086776000
0	10479373506	5.192	3613867328000
0	10483503341	5.193	64709584000
0	10487629670	5.194	2059850240000
0	10491738293	5.195	2058878688000
0	10495858227	5.196	1814209432000
0	10499964741	5.197	2673340680000
0	10504111293	5.198	262233264000
0	10508254351	5.199	2610754312000
0	10512368438	5.2	862012464000
0	10516511127	5.201	88340784000
0	10520655809	5.202	1815363696000
0	10524824275	5.203	5468864352000
0	10528995562	5.204	4393000640000
0	10533176825	5.205	1034070792000
0	10537370851	5.206	67039712000
0	10541558510	5.207	1829524024000
0	10545760670	5.208	1830076088000
0	10549958726	5.209	3914468216000
0	10554151973	5.21	3625225960000
0	10558334346	5.211	49306480000
0	10562531432	5.212	48060048000
0	10566707271	5.213	1054709576000
0	10570881847	5.214	3602853424000
0	10575082758	5.215	1847148232000
0	10579271225	5.216	4119476192000
0	10583469321	5.217	1835680040000
0	10587646230	5.218	1830422808000
0	10591838403	5.219	1839210640000
0	10596034585	5.22	3592385920000
0	10600239280	5.221	1633015064000
0	10604454989	5.222	1812775120000
0	10608661286	5.223	2608982472000
0	10612883174	5.224	3619035496000
0	10617076364	5.225	5611444272000
0	10621291348	5.226	2613748072000
0	10625489657	5.227	25532552000
0	10629685799	5.228	2095875200000
0	10633877273	5.229	865925392000
0	10638089698	5.23	3835152056000
0	10642307538	5.231	4474131352000
0	10646553212	5.232	40581872000
0	10650764714	5.233	44010672000
0	10654952771	5.234	109008224000
0	10659142941	5.235	2604948984000
0	10663320802	5.236	89138528000
0	10667491058	5.237	254453120000
0	10671662268	5.238	265953720000
0	10675828055	5.239	1634681952000
0	10680001071	5.24	36300864000
0	10684174629	5.241	1824287072000
0	10688351405	5.242	824032704000
0	10692529613	5.243	3616715736000
0	10696724085	5.244	107995312000
0	10700909178	5.245	3615941160000
0	10705114753	5.246	2625994416000
0	10709290978	5.247	1053506424000
0	10713460116	5.248	96005352000
0	10717600921	5.249	3618358016000
0	10721704632	5.25	55470208000
0	10725844274	5.251	69698304000
0	10729982832	5.252	4410242904000
0	10734111474	5.253	4267457648000
0	10738226928	5.254	30328752000
0	10742351055	5.255	61262296000
0	10746465986	5.256	1832613968000
0	10750581975	5.257	815499696000
0	10754685038	5.258	2624358856000
0	10758808752	5.259	2603773360000
0	10762913761	5.26	2613792880000
0	10767030488	5.261	1880406344000
0	10771141308	5.262	39607640000
0	10775241849	5.263	1833233992000
0	10779364392	5.264	1830900656000
0	10783472413	5.265	837249208000
0	10787574894	5.266	27920328000
0	10791671393	5.267	1817043944000
0	10795766050	5.268	3834171344000
0	10799886825	5.269	54132960000
0	10804009781	5.27	4402342584000
0	10808118467	5.271	4412421264000
0	10812224962	5.272	46138568000
0	10816311605	5.273	46572184000
0	10820416384	5.274	6179773928000
0	10824527731	5.275	823043384000
0	10828637986	5.276	2626595640000
0	10832765897	5.277	267400416000
0	10836873276	5.278	832103032000
0	10841005428	5.279	92766496000
0	10845175275	5.28	23601136000
0	10849294814	5.281	49211904000
0	10853445807	5.282	124026760000
0	10857608102	5.283	40912528000
0	10861778137	5.284	43910528000
0	10865929918	5.285	1826526624000
0	10870096000	5.286	2616270184000
0	10874280051	5.287	2824746648000
0	10878482550	5.288	89373968000
0	10882684726	5.289	276695992000
0	10886891828	5.29	44965160000
0	10891094948	5.291	3613496040000
0	10895291615	5.292	818382352000
0	10899490567	5.293	44822024000
0	10903694510	5.294	5390579728000
0	10907882420	5.295	6182929392000
0	10912100194	5.296	1901318744000
0	10916319260	5.297	2615041392000
0	10920519381	5.298	1621503888000
0	10924733905	5.299	6240440792000
0	10928957837	5.3	103927912000
0	10933184095	5.301	1840108000000
0	10937396330	5.302	3628285568000
0	10941559554	5.303	2599300096000
0	10945723941	5.304	98990544000
0	10949892016	5.305	51365264000
0	10954053264	5.306	60888560000
0	10958218687	5.307	36942008000
0	10962407906	5.308	2100240384000
0	10966570941	5.309	5199957832000
0	10970738775	5.31	835401272000
0	10974901222	5.311	1821289584000
0	10979041110	5.312	825651808000
0	10983180094	5.313	1835186336000
0	10987334956	5.314	2660341432000
0	10991486356	5.315	1849642000000
0	10995639603	5.316	43174744000
0	10999792717	5.317	3862645144000
0	11003953300	5.318	1048464232000
0	11008105947	5.319	97682784000
0	11012217790	5.32	41792600000
0	11016336536	5.321	48310320000
0	11020477009	5.322	832804536000
0	11024613880	5.323	2054098952000
0	11028751597	5.324	255792096000
0	11032893805	5.325	138172856000
0	11037032622	5.326	262596856000
0	11041160564	5.327	69385920000
0	11045276472	5.328	2606349640000
0	11049369847	5.329	245119232000
0	11053467817	5.33	3662459184000
0	11057578536	5.331	3820888824000
0	11061674263	5.332	57024064000
0	11065783358	5.333	64590944000
[...]
4	27761484822	9.417	3617043032000
4	27765450786	9.418	57370968000
4	27769423138	9.419	133297440000
4	27773394659	9.42	3615515552000
4	27777353412	9.421	49269680000
4	27781327514	9.422	1824191536000
4	27785303309	9.423	2850093184000
4	27789306913	9.424	5412565960000
4	27793314592	9.425	40730152000
4	27797324029	9.426	25630344000
4	27801335178	9.427	41167392000
4	27805349846	9.428	1840296408000
4	27809341373	9.429	54907992000
4	27813333684	9.43	2618470008000
4	27817315072	9.431	3625644696000
4	27821314347	9.432	3625136800000
4	27825312935	9.433	2638383376000
4	27829304123	9.434	2038517552000
4	27833307728	9.435	2613134000000
4	27837309780	9.436	84209416000
4	27841310310	9.437	2602217104000
4	27845306312	9.438	2690413424000
4	27849278357	9.439	246986968000
4	27853252422	9.44	106739368000
4	27857211416	9.441	37807048000
4	27861143009	9.442	47506736000
4	27865096041	9.443	1817783000000
4	27869060530	9.444	1631878512000
4	27873013028	9.445	1113803176000
4	27876966837	9.446	5481316544000
4	27880930841	9.447	3449971232000
4	27884876069	9.448	6201752808000
4	27888811479	9.449	1848004440000
4	27892727304	9.45	93756104000
4	27896677154	9.451	32374448000
4	27900629238	9.452	895930584000
4	27904557549	9.453	62575840000
4	27908494137	9.454	815057224000
4	27912432394	9.455	834282912000
4	27916374838	9.456	54161136000
4	27920318170	9.457	1823072456000
4	27924279036	9.458	1639793336000
4	27928242253	9.459	1816840720000
4	27932195174	9.46	1833207408000
4	27936114132	9.461	2025404144000
4	27940023883	9.462	3608237000000
4	27943960305	9.463	5396712544000
4	27947901858	9.464	46513472000
4	27951841819	9.465	898029176000
4	27955795777	9.466	2833134336000
4	27959752685	9.467	4422279960000
4	27963709599	9.468	248909360000
4	27967672897	9.469	36383856000
4	27971635439	9.47	2623927024000
4	27975593764	9.471	2607542520000
4	27979505213	9.472	2631137408000
4	27983449616	9.473	3613791736000
4	27987398548	9.474	843840016000
4	27991339496	9.475	51658256000
4	27995263327	9.476	64850696000
4	27999200177	9.477	2251942216000
4	28003146291	9.478	5405817232000
4	28007103176	9.479	272140016000
4	28011049178	9.48	3629343632000
4	28014998074	9.481	1830607848000
4	28018969416	9.482	55392992000
4	28022949253	9.483	837523304000
4	28026930949	9.484	5280162304000
4	28030938230	9.485	3401255808000
4	28034931140	9.486	1841953944000
4	28038944107	9.487	1856854920000
4	28042935613	9.488	250913648000
4	28046910366	9.489	1857392888000
4	28050873536	9.49	1039782256000
4	28054836601	9.491	830984280000
4	28058824102	9.492	1098319328000
4	28062808003	9.493	1842510968000
4	28066796030	9.494	2845362144000
4	28070797818	9.495	72129184000
4	28074787826	9.496	26512880000
4	28078775737	9.497	2841577056000
4	28082773199	9.498	1842264256000
4	28086756139	9.499	66028920000
4	28090745665	9.5	845702616000
4	28094690771	9.501	1824755568000
4	28098657638	9.502	1827183088000
4	28102644361	9.503	5422392880000
4	28106635966	9.504	1835114584000
4	28110623360	9.505	826938704000
4	28114618477	9.506	58265024000
4	28118631344	9.507	264885616000
4	28122626866	9.508	2614484512000
4	28126587391	9.509	840468168000
4	28130562394	9.51	50804632000
4	28134519400	9.511	2847268080000
4	28138482714	9.512	1838769328000
4	28142419787	9.513	1831239320000
4	28146375063	9.514	247224512000
4	28150354460	9.515	55549608000
4	28154339535	9.516	1849349976000
4	28158301507	9.517	21898968000
4	28162275051	9.518	3419402576000
4	28166270037	9.519	283523056000
4	28170293275	9.52	1840808112000
4	28174302182	9.521	3636791816000
4	28178295812	9.522	44473912000
4	28182332919	9.523	2272345856000
4	28186368453	9.524	2089935200000
4	28190412156	9.525	1870492552000
4	28194457007	9.526	831778728000
4	28198506734	9.527	2068370144000
4	28202539285	9.528	40387696000
4	28206548233	9.529	1830948200000
4	28210569407	9.53	829905592000
4	28214608027	9.531	3627701880000
4	28218648605	9.532	954486232000
4	28222677103	9.533	28992800000
4	28226722079	9.534	5470147696000
4	28230770978	9.535	4434371960000
4	28234803932	9.536	835836456000
4	28238861269	9.537	2033640624000
4	28242938213	9.538	48143048000
4	28247001796	9.539	1820478280000
4	28251068931	9.54	2045203776000
4	28255156435	9.541	1287945920000
4	28259222164	9.542	2676248520000
4	28263295843	9.543	3628719368000
4	28267383970	9.544	116025128000
4	28271502727	9.545	2269128704000
4	28275639353	9.546	2068539344000
4	28279785850	9.547	3402250616000
4	28283937750	9.548	28427608000
4	28288035705	9.549	38311944000
4	28292130809	9.55	42292368000
4	28296247372	9.551	4399694736000
4	28300345980	9.552	254604776000
4	28304471317	9.553	58554264000
4	28308609083	9.554	256434120000
4	28312717634	9.555	32165616000
4	28316853332	9.556	48138528000
4	28320969802	9.557	34981376000
4	28325073349	9.558	884103256000
4	28329152113	9.559	38375304000
4	28333251053	9.56	2045473840000
4	28337351438	9.561	2042605712000
4	28341433239	9.562	1834959544000
4	28345515623	9.563	78565760000
4	28349595972	9.564	891130400000
4	28353666403	9.565	254847168000
4	28357757042	9.566	3725599840000
4	28361824691	9.567	3628848784000
4	28365906796	9.568	4416399248000
4	28369971988	9.569	844535024000
4	28374076579	9.57	1630583408000
4	28378159899	9.571	3668008816000
4	28382238818	9.572	67753864000
4	28386319293	9.573	1074819984000
4	28390428237	9.574	38314032000
4	28394512923	9.575	55619592000
4	28398601467	9.576	94961736000
4	28402710299	9.577	2840558472000
4	28406814662	9.578	2623583488000
4	28410925316	9.579	56229512000
4	28415030309	9.58	3645482168000
4	28419097765	9.581	2623741816000
4	28423173180	9.582	834368104000
4	28427264864	9.583	1839132800000
4	28431352287	9.584	1821065824000
4	28435413718	9.585	4406523936000
4	28439498249	9.586	4384630376000
4	28443593046	9.587	56016256000
4	28447683649	9.588	908983504000
4	28451789048	9.589	817379200000
4	28455870752	9.59	489588952000
4	28459945339	9.591	1818994272000
4	28464013425	9.592	816858552000
4	28468022605	9.593	44495528000
4	28472091000	9.594	4192693784000
4	28476142825	9.595	44481096000
4	28480204796	9.596	24891544000
4	28484270991	9.597	38277960000
4	28488347742	9.598	68052928000
4	28492409062	9.599	1837684904000
4	28496478477	9.6	890874048000
4	28500563939	9.601	55469888000
4	28504623015	9.602	3835259056000
4	28508695110	9.603	3833975896000
4	28512762341	9.604	1829570096000
4	28516859977	9.605	1154227520000
4	28520944986	9.606	4624574424000
4	28525028419	9.607	1100167656000
4	28529115953	9.608	3418280848000
4	28533233155	9.609	51746360000
4	28537347392	9.61	2635305000000
4	28541479549	9.611	3619567408000
4	28545620016	9.612	46339048000
4	28549750472	9.613	825884384000
4	28553879438	9.614	4855747056000
4	28557979785	9.615	833667464000
4	28562075047	9.616	274863400000
4	28566165089	9.617	58223408000
4	28570261533	9.618	2105061000000
4	28574362735	9.619	2612032760000
4	28578453430	9.62	39567712000
4	28582543487	9.621	4189050808000
4	28586621626	9.622	1829144760000
4	28590682497	9.623	5389784000000
4	28594757833	9.624	4402158832000
4	28598843376	9.625	297609576000
4	28602935619	9.626	55643624000
4	28607021900	9.627	4390724112000
4	28611104678	9.628	4395365432000
4	28615196722	9.629	1611161080000
4	28619311462	9.63	3593894824000
4	28623422531	9.631	44402008000
4	28627499711	9.632	28721704000
4	28631585049	9.633	3601215056000
4	28635700285	9.634	3640647768000
4	28639781101	9.635	327292136000
4	28643829823	9.636	2040228184000
4	28647904212	9.637	3634217360000
4	28651992907	9.638	55704936000
4	28656113257	9.639	1818960744000
4	28660231585	9.64	261896712000
4	28664357581	9.641	2635221744000
4	28668482056	9.642	350913008000
4	28672589348	9.643	2821356112000
4	28676724507	9.644	3609080960000
4	28680816343	9.645	272949120000
4	28684943655	9.646	36111040000
4	28689039923	9.647	39399144000
4	28693147299	9.648	38836480000
4	28697260546	9.649	1077214968000
4	28701364748	9.65	30255192000
4	28705475103	9.651	4390731536000
4	28709593019	9.652	30100032000
4	28713739490	9.653	97703944000
4	28717878030	9.654	2625793944000
4	28722013737	9.655	3615803312000
4	28726163703	9.656	47233032000
4	28730303230	9.657	4441505592000
4	28734419147	9.658	101670544000
4	28738521111	9.659	1827665336000
4	28742637009	9.66	812897200000
4	28746738094	9.661	2657378904000
4	28750838656	9.662	3604553784000
4	28754933470	9.663	2607617648000
4	28759041590	9.664	2607507016000
4	28763160008	9.665	269381552000
4	28767254525	9.666	4403670256000
4	28771350826	9.667	2633051328000
4	28775467952	9.668	1883119408000
4	28779593071	9.669	2604058336000
4	28783718552	9.67	68679248000
4	28787825796	9.671	33259096000
4	28791940170	9.672	1703075448000
4	28796069262	9.673	275802808000
4	28800184306	9.674	832297576000
4	28804319295	9.675	824670344000
4	28808448163	9.676	3602229760000
4	28812562039	9.677	821664512000
4	28816677531	9.678	172198504000
4	28820762228	9.679	1814044192000
4	28824843102	9.68	2619867664000
4	28828922484	9.681	1833658256000
4	28833012660	9.682	4403256352000
4	28837123752	9.683	2047633376000
4	28841220745	9.684	47561536000
4	28845332217	9.685	3619549280000
4	28849440921	9.686	2053824208000
4	28853557596	9.687	50155968000
4	28857665096	9.688	53579944000
4	28861790063	9.689	1897125872000
4	28865925960	9.69	5408693024000
4	28870039729	9.691	5402963128000
4	28874148600	9.692	61372600000
4	28878262151	9.693	92385344000
4	28882385614	9.694	57440704000
4	28886469510	9.695	2609176912000
4	28890586220	9.696	1821638696000
4	28894688293	9.697	1127157152000
4	28898788657	9.698	2648104912000
4	28902922414	9.699	885134336000
4	28907026084	9.7	2605870168000
4	28911148410	9.701	1896425968000
4	28915255829	9.702	1038598168000
4	28919347985	9.703	1623993160000
4	28923442692	9.704	2063054216000
4	28927534710	9.705	49368328000
4	28931599524	9.706	22431168000
4	28935683940	9.707	842362416000
4	28939768420	9.708	50710344000
4	28943819682	9.709	69375296000
4	28947862145	9.71	1834220640000
4	28951900676	9.711	2627101552000
4	28955936464	9.712	1052667208000
4	28959974827	9.713	38199776000
4	28964016281	9.714	3614438184000
4	28968041504	9.715	2669982696000
4	28972091255	9.716	38148608000
4	28976158575	9.717	835529912000
4	28980220352	9.718	341029472000
4	28984221375	9.719	33857288000
4	28988259104	9.72	1843927056000
4	28992288502	9.721	2046513216000
4	28996303961	9.722	5389554008000
4	29000354764	9.723	4392172216000
4	29004409786	9.724	1838063904000
4	29008482184	9.725	3626196296000
4	29012548089	9.726	60487952000
4	29016603430	9.727	24378440000
4	29020662574	9.728	312700472000
4	29024701792	9.729	823309336000
4	29028750917	9.73	1819747120000
4	29032750556	9.731	834187536000
4	29036763572	9.732	3610225616000
4	29040797629	9.733	5409659176000
4	29044827377	9.734	1830583648000
4	29048861522	9.735	888201416000
4	29052895967	9.736	37136760000
4	29056967914	9.737	4486766768000
4	29061048785	9.738	64366520000
4	29065121619	9.739	43625144000
4	29069198689	9.74	2687585000000
4	29073299599	9.741	886690240000
4	29077405766	9.742	41980512000
4	29081538207	9.743	49073632000
4	29085645259	9.744	46902040000
4	29089761516	9.745	54139776000
4	29093863330	9.746	1828693720000
4	29097978998	9.747	2641575344000
4	29102119485	9.748	275359840000
4	29106229609	9.749	21316584000
4	29110335859	9.75	901994072000
4	29114411215	9.751	3623164432000
4	29118518160	9.752	44259944000
4	29122632169	9.753	2827111096000
4	29126719348	9.754	1850042232000
4	29130850949	9.755	825253032000
4	29134961584	9.756	2038373136000
4	29139057530	9.757	2041477960000
4	29143184641	9.758	36986704000
4	29147305556	9.759	1921230848000
4	29151425710	9.76	3616802224000
4	29155529906	9.761	1833464816000
4	29159629064	9.762	253346008000
4	29163723740	9.763	913594584000
4	29167831542	9.764	2608237256000
4	29171945582	9.765	50019592000
4	29176049665	9.766	823170792000
4	29180120561	9.767	1810281744000
4	29184196058	9.768	3607745456000
4	29188248716	9.769	2632651152000
4	29192283951	9.77	1863692432000
4	29196317687	9.771	2609902040000
4	29200369864	9.772	1839106968000
4	29204444168	9.773	1942696000000
4	29208508237	9.774	2701016408000
4	29212591303	9.775	47687680000
4	29216686673	9.776	2066730368000
4	29220778599	9.777	1844071952000
4	29224885485	9.778	1870649704000
4	29228987997	9.779	3596227392000
4	29233085891	9.78	103829352000
4	29237194789	9.781	1809489912000
4	29241289134	9.782	1064664352000
4	29245392526	9.783	27592048000
4	29249503428	9.784	23272224000
4	29253583944	9.785	38914336000
4	29257655110	9.786	36485112000
4	29261735891	9.787	4404156472000
4	29265839108	9.788	3604769800000
4	29269939188	9.789	828282688000
4	29274042800	9.79	903156664000
4	29278127978	9.791	2038633064000
4	29282226611	9.792	478705072000
4	29286321580	9.793	60378976000
4	29290403902	9.794	5406544048000
4	29294473833	9.795	1834581160000
4	29298536479	9.796	4478517088000
4	29302606885	9.797	1629144888000
4	29306674552	9.798	4399523568000
4	29310745576	9.799	43559232000
4	29314789632	9.8	2075136376000
4	29318825735	9.801	1863413656000
4	29322877641	9.802	1850931112000
4	29326915998	9.803	65220608000
4	29330967566	9.804	29640944000
4	29335009202	9.805	1621273304000
4	29339066805	9.806	831844448000
4	29343093730	9.807	1887973864000
4	29347133607	9.808	833877152000
4	29351174782	9.809	42298232000
4	29355206627	9.81	2633176464000
4	29359231269	9.811	2060070336000
4	29363222339	9.812	1884268968000
4	29367230877	9.813	1836253272000
4	29371249610	9.814	278460592000
4	29375280352	9.815	149280216000
4	29379305286	9.816	2611226208000
4	29383318461	9.817	2635399744000
4	29387371134	9.818	2095656200000
4	29391430785	9.819	831120696000
4	29395460273	9.82	1629000312000
4	29399487200	9.821	1629355392000
4	29403518986	9.822	2735990856000
4	29407540759	9.823	252821560000
4	29411546628	9.824	1811446360000
4	29415545220	9.825	266234768000
4	29419547260	9.826	44301000000
4	29423577430	9.827	1833276752000
4	29427595841	9.828	43903496000
4	29431608128	9.829	1822070944000
4	29435647549	9.83	866791120000
4	29439667826	9.831	3617337960000
4	29443691511	9.832	1848431912000
4	29447731515	9.833	2077636096000
4	29451771319	9.834	29671848000
4	29455827881	9.835	42824600000
4	29459910599	9.836	4394961312000
4	29463967228	9.837	1859299232000
4	29468012198	9.838	47337704000
4	29472059455	9.839	1900157064000
4	29476097126	9.84	3609153096000
4	29480146405	9.841	3608987880000
4	29484180599	9.842	33708704000
4	29488213370	9.843	40035984000
4	29492257173	9.844	3607839080000
4	29496336211	9.845	5606785520000
4	29500422837	9.846	269528944000
4	29504492202	9.847	50618552000
4	29508576697	9.848	863043712000
4	29512654396	9.849	1818259968000
4	29516725141	9.85	1819702296000
4	29520804274	9.851	846230872000
4	29524866168	9.852	241316400000
4	29528945359	9.853	32385696000
4	29533023652	9.854	1815281648000
4	29537119424	9.855	1819752936000
4	29541197263	9.856	34009552000
4	29545292333	9.857	2058413880000
4	29549370016	9.858	3626364632000
4	29553460558	9.859	3430791800000
4	29557557603	9.86	27334472000
4	29561615745	9.861	1834766320000
4	29565682123	9.862	130920672000
4	29569759957	9.863	3614184128000
4	29573811391	9.864	834351968000
4	29577868155	9.865	1817973984000
4	29581897337	9.866	2027055800000
4	29585948083	9.867	5406221336000
4	29589992331	9.868	71694664000
4	29594053516	9.869	843103504000
4	29598105159	9.87	1832746160000
4	29602155454	9.871	1098572888000
4	29606210324	9.872	40307568000
4	29610292542	9.873	3607700320000
4	29614369043	9.874	3628616272000
4	29618477743	9.875	2043586288000
4	29622556416	9.876	266108000000
4	29626624133	9.877	1837188344000
4	29630688762	9.878	2611280448000
4	29634793062	9.879	2605081472000
4	29638858921	9.88	182587616000
4	29642945700	9.881	279614712000
4	29647037469	9.882	1062471664000
4	29651108649	9.883	1834820848000
4	29655182004	9.884	4397038896000
4	29659274183	9.885	823458568000
4	29663333079	9.886	1854725080000
4	29667387326	9.887	280593432000
4	29671459960	9.888	3409988096000
4	29675518869	9.889	1638424360000
4	29679608067	9.89	4404434128000
4	29683695721	9.891	2040948272000
4	29687794787	9.892	3642999856000
4	29691888214	9.893	2041303656000
4	29695980482	9.894	1845409656000
4	29700139257	9.895	2619517320000
4	29704284208	9.896	2061073336000
4	29708439752	9.897	960553016000
4	29712609967	9.898	59885584000
4	29716751713	9.899	1845380896000
4	29720906594	9.9	2628772968000
4	29725042126	9.901	4401386888000
4	29729202246	9.902	239474952000
4	29733381610	9.903	29889536000
4	29737558507	9.904	2614771032000
4	29741704328	9.905	41411984000
4	29745842066	9.906	1635434520000
4	29749992811	9.907	837501152000
4	29754139804	9.908	2610991888000
4	29758296857	9.909	88154528000
4	29762459502	9.91	52907576000
4	29766613452	9.911	4304511880000
4	29770758483	9.912	1944318000000
4	29774874365	9.913	3602903888000
4	29779004260	9.914	1822253336000
4	29783140317	9.915	833566992000
4	29787260998	9.916	2618043496000
4	29791452254	9.917	118268792000
4	29795643515	9.918	1794742416000
4	29799814507	9.919	31779680000
4	29803972529	9.92	1832200472000
4	29808120465	9.921	888133128000
4	29812257762	9.922	866754520000
4	29816406481	9.923	1824005088000
4	29820566114	9.924	1835091104000
4	29824705089	9.925	1051446208000
4	29828841356	9.926	58089592000
4	29832988615	9.927	41462848000
4	29837128942	9.928	4405200480000
4	29841301222	9.929	1905924568000
4	29845455679	9.93	37997272000
4	29849615356	9.931	1854005464000
4	29853779076	9.932	2691128984000
4	29857972318	9.933	2641226104000
4	29862149214	9.934	44131464000
4	29866286974	9.935	2623095992000
4	29870431963	9.936	51953976000
4	29874520249	9.937	1844056472000
4	29878620716	9.938	276622792000
4	29882704863	9.939	1830020880000
4	29886820438	9.94	1056647144000
4	29890926865	9.941	169739448000
4	29895049882	9.942	1889234408000
4	29899161234	9.943	840651016000
4	29903252756	9.944	1854174656000
4	29907361884	9.945	37646664000
4	29911439341	9.946	5453384704000
4	29915492475	9.947	1066251008000
4	29919551952	9.948	61458576000
4	29923608634	9.949	52218912000
4	29927673090	9.95	50991376000
4	29931744372	9.951	48060832000
4	29935807891	9.952	95261680000
4	29939884055	9.953	2624848624000
4	29943935738	9.954	815926440000
4	29947990169	9.955	32609328000
4	29952025468	9.956	1632237792000
4	29956106445	9.957	6020378400000
4	29960195385	9.958	2620068680000
4	29964275477	9.959	62854232000
4	29968378561	9.96	43809008000
4	29972450283	9.961	280492248000
4	29976521414	9.962	2037855976000
4	29980629935	9.963	4457863208000
4	29984758036	9.964	1064163240000
4	29988885839	9.965	70192672000
4	29992993642	9.966	3907675048000
4	29997096408	9.967	1841119440000
4	30001171771	9.968	27330192000
4	30005284949	9.969	1837039688000
4	30009375271	9.97	43432240000
4	30013477866	9.971	285617968000
4	30017566655	9.972	46897448000
4	30021667788	9.973	61571392000
4	30025744316	9.974	47669848000
4	30029820850	9.975	2631855312000
4	30033862319	9.976	270553424000
4	30037919718	9.977	876502672000
4	30042002028	9.978	37968528000
4	30046089170	9.979	2856060352000
4	30050169536	9.98	841484896000
4	30054257913	9.981	1833830224000
4	30058340296	9.982	2709391432000
4	30062444684	9.983	36972504000
4	30066555744	9.984	1861915744000
4	30070617057	9.985	846275424000
4	30074698459	9.986	2611724272000
4	30078767788	9.987	1816545680000
4	30082848022	9.988	1818150584000
4	30086941208	9.989	3603416056000
4	30091036914	9.99	5620079744000
4	30095155919	9.991	837347648000
4	30099269531	9.992	31253040000
4	30103376519	9.993	26841768000
4	30107517432	9.994	47291304000
4	30111649729	9.995	3610679920000
4	30115793688	9.996	1838042744000
4	30119934081	9.997	41678048000
4	30124046069	9.998	1801580384000
4	30128153358	9.999	50040336000
4	30132286949	10	49473552000

