version 2
run General-0-20221124-11:25:00-13820
attr configname General
attr datetime 20221124-11:25:00
attr experiment General
attr inifile omnetpp.ini
attr iterationvars ""
attr iterationvarsf ""
attr measurement ""
attr network Network
attr processid 13820
attr repetition 0
attr replication #0
attr resultdir results
attr runnumber 0
attr seedset 0
param Network.NumOfToRs 5
param Network.NumOfAggregation 3
param Network.rack[*].number_of_hosts 50000
param Network.linedelay 0.2
param Network.tor[*].CacheSize 1000
param Network.agg[*].CacheSize 1000
param Network.controllerswitch.CacheSize 1000
param Network.tor[*].threshold 2
param Network.agg[*].threshold 2
param Network.controllerswitch.threshold 1
param Network.tor[*].Type 1001
param Network.agg[*].Type 1002
param Network.controllerswitch.Type 1003
param Network.rack[*].host[*].flow_appearance "\"\""
param Network.rack[*].host[*].flow_size "\"\""
param Network.policy_size "\"\""
param Network.cache_size "\"\""
param Network.propagation_time "\"\""
param Network.processing_time_on_data_packet_in_sw "\"\""
param Network.processing_time_on_data_packet_in_controller "\"\""
param Network.insertion_delay "\"\""
param Network.eviction_delay "\"\""
param Network.elephant_table_size "\"\""
param Network.flush_elephant_time "\"\""
param Network.check_for_elephant_time "\"\""
param Network.elephant_sample_rx "\"\""
param Network.bandwidth_elephant_threshold "\"\""
param Network.already_requested_threshold "\"\""
param Network.push_threshold_in_aggregation "\"\""
param Network.push_threshold_in_controller_switch "\"\""
param Network.cache_percentage "\"\""
param Network.eviction_sample_size "\"\""
param Network.inter_arrival_time_between_packets "\"\""
param Network.inter_arrival_time_between_flowlets "\"\""
param Network.inter_arrival_time_between_flows "\"\""
param Network.large_flow "\"\""
param Network.last_flow_appearance "\"0\""
param Network.rack[*].last_flow_appearance "\"0\""

vector 0 Network.rack[0].hub flowlet_count ETV
vector 1 Network.rack[1].hub flowlet_count ETV
vector 2 Network.rack[2].hub flowlet_count ETV
vector 3 Network.rack[3].hub flowlet_count ETV
vector 4 Network.rack[4].hub flowlet_count ETV
0	1511638427	3.001	57378120000
0	1517028255	3.002	5676406768000
0	1522289505	3.003	2628235720000
0	1527495311	3.004	3650935608000
0	1532687607	3.005	903027712000
0	1537875592	3.006	260979904000
0	1543094559	3.007	4403168016000
0	1548321521	3.008	51624560000
0	1553520964	3.009	33382272000
0	1558676298	3.01	23012632000
0	1563821572	3.011	73733472000
0	1568931863	3.012	1816692960000
0	1574058819	3.013	1925608888000
0	1579172644	3.014	2614039136000
0	1584276180	3.015	1032859960000
0	1589375985	3.016	3390389032000
0	1594457973	3.017	287183368000
0	1599505794	3.018	1827899400000
0	1604535427	3.019	5188790640000
0	1609595754	3.02	4395043528000
0	1614664086	3.021	832201400000
0	1619705381	3.022	4396183096000
0	1624733928	3.023	43196640000
0	1629756488	3.024	825876032000
0	1634737708	3.025	2609825960000
0	1639689935	3.026	2619310816000
0	1644646276	3.027	3612170504000
0	1649571357	3.028	1833098304000
0	1654499077	3.029	34342752000
0	1659434062	3.03	1837517528000
0	1664355659	3.031	3616883384000
0	1669276315	3.032	4623665392000
0	1674180820	3.033	1912346168000
0	1679047110	3.034	2051761904000
0	1683911880	3.035	1829117496000
0	1688803017	3.036	820661752000
0	1693705611	3.037	3610829352000
0	1698586808	3.038	60867784000
0	1703522666	3.039	2035556656000
0	1708505610	3.04	817027232000
0	1713477616	3.041	2042219944000
0	1718465223	3.042	1048443184000
0	1723475355	3.043	829585416000
0	1728511186	3.044	1823482248000
0	1733505245	3.045	3599437352000
0	1738525020	3.046	5478360120000
0	1743550485	3.047	2030987152000
0	1748577640	3.048	4397253176000
0	1753610496	3.049	88971048000
0	1758633544	3.05	55870304000
0	1763681190	3.051	269500904000
0	1768747934	3.052	2038762384000
0	1773770163	3.053	98637760000
0	1778822867	3.054	1855110208000
0	1783936564	3.055	2631428896000
0	1789042105	3.056	1831872600000
0	1794189866	3.057	4409061960000
0	1799340873	3.058	7255315216000
0	1804486372	3.059	26795912000
0	1809651810	3.06	854514520000
0	1814812571	3.061	26128904000
0	1820016344	3.062	2602434544000
0	1825234398	3.063	2604510672000
0	1830480383	3.064	38961040000
0	1835724185	3.065	266320568000
0	1840995937	3.066	3811184664000
0	1846274263	3.067	1057327200000
0	1851594597	3.068	884064896000
0	1856904414	3.069	51058632000
0	1862240087	3.07	1897043896000
0	1867573361	3.071	1116077976000
0	1872871485	3.072	1814877688000
0	1878173460	3.073	50928672000
0	1883489554	3.074	3429120248000
0	1888788642	3.075	276842504000
0	1894052476	3.076	260283608000
0	1899325275	3.077	271221640000
0	1904558227	3.078	1869951048000
0	1909753059	3.079	1828163608000
0	1914922863	3.08	834186144000
0	1920040288	3.081	4397691400000
0	1925175197	3.082	1038798696000
0	1930303111	3.083	99098152000
0	1935433990	3.084	902615984000
0	1940575623	3.085	1857466504000
0	1945712559	3.086	50386328000
0	1950799983	3.087	5391866088000
0	1955882304	3.088	2662938288000
0	1960945150	3.089	1890937560000
0	1966018084	3.09	819776232000
0	1971070738	3.091	826883520000
0	1976149557	3.092	4400999456000
0	1981260460	3.093	1831415296000
0	1986346284	3.094	3618688288000
0	1991403572	3.095	1066236928000
0	1996458182	3.096	2056598872000
0	2001500142	3.097	19635304000
0	2006510215	3.098	30732704000
0	2011525067	3.099	2035481632000
0	2016558941	3.1	839336200000
0	2021589759	3.101	35142784000
0	2026613052	3.102	833133496000
0	2031633995	3.103	1817520528000
0	2036625133	3.104	1849177720000
0	2041581576	3.105	79726424000
0	2046512075	3.106	1859067168000
0	2051437017	3.107	1046848352000
0	2056364258	3.108	1716461968000
0	2061329074	3.109	1722264264000
0	2066276566	3.11	49137424000
0	2071198802	3.111	2071450104000
0	2076125723	3.112	1846820608000
0	2081077377	3.113	841012632000
0	2086037782	3.114	277085864000
0	2090989643	3.115	1099472672000
0	2095938306	3.116	1841437872000
0	2100904227	3.117	4403876640000
0	2105885727	3.118	4619681992000
0	2110851532	3.119	467127272000
0	2115830986	3.12	1834383152000
0	2120801020	3.121	1832898728000
0	2125752787	3.122	95530104000
0	2130704810	3.123	1826971400000
0	2135634578	3.124	2042034424000
0	2140575789	3.125	1823404944000
0	2145540707	3.126	96037528000
0	2150525795	3.127	38982616000
0	2155480105	3.128	64295632000
0	2160453460	3.129	1616585944000
0	2165413237	3.13	837325984000
0	2170357489	3.131	42539616000
0	2175278320	3.132	30504312000
0	2180190026	3.133	71935872000
0	2185095650	3.134	2615418544000
0	2189962067	3.135	2620869504000
0	2194829574	3.136	3619765024000
0	2199667265	3.137	1826570696000
0	2204496030	3.138	825277448000
0	2209309655	3.139	1817890424000
0	2214101370	3.14	43034392000
0	2218898147	3.141	2605766752000
0	2223685117	3.142	3818862424000
0	2228419973	3.143	1806826936000
0	2233169598	3.144	3690398080000
0	2237924844	3.145	109243376000
0	2242648641	3.146	44036048000
0	2247371174	3.147	1840735648000
0	2252075994	3.148	1828373760000
0	2256763612	3.149	3844178296000
0	2261464206	3.15	31431064000
0	2266169655	3.151	43198544000
0	2270887515	3.152	4611296456000
0	2275611357	3.153	1857837144000
0	2280327998	3.154	6189571752000
0	2285033402	3.155	1097379392000
0	2289751284	3.156	102866560000
0	2294488020	3.157	3627225240000
0	2299225623	3.158	267228680000
0	2303972216	3.159	830633448000
0	2308742499	3.16	52381584000
0	2313488954	3.161	89274856000
0	2318227324	3.162	1847505592000
0	2322956613	3.163	1832802928000
0	2327709544	3.164	1827997408000
0	2332431331	3.165	2048882864000
0	2337158439	3.166	55468464000
0	2341914007	3.167	2835529880000
0	2346704598	3.168	832853752000
0	2351495994	3.169	1854919640000
0	2356287698	3.17	822794976000
0	2361079152	3.171	4417703376000
0	2365893380	3.172	2832331200000
0	2370687972	3.173	2608314080000
0	2375533568	3.174	261680072000
0	2380360917	3.175	1617200848000
0	2385201119	3.176	1823119424000
0	2390021372	3.177	1843533720000
0	2394833920	3.178	57521752000
0	2399652508	3.179	1841723056000
0	2404439324	3.18	44037392000
0	2409255853	3.181	2603644328000
0	2414102912	3.182	2847102552000
0	2418949572	3.183	2058919872000
0	2423836157	3.184	4421140376000
0	2428728618	3.185	2609104832000
0	2433630117	3.186	3647687904000
0	2438556703	3.187	912123968000
0	2443482910	3.188	1624838544000
0	2448398333	3.189	854118208000
0	2453306429	3.19	853812768000
0	2458234479	3.191	4409819120000
0	2463140952	3.192	2637422384000
0	2468094350	3.193	834038336000
0	2473066786	3.194	1601894080000
0	2478045135	3.195	1830727192000
0	2483031997	3.196	38703048000
0	2488085335	3.197	2660369016000
0	2493144632	3.198	1059631176000
0	2498207280	3.199	1823994144000
0	2503282451	3.2	1818699968000
0	2508356868	3.201	1804937176000
0	2513447772	3.202	1825037752000
0	2518583918	3.203	5185425872000
0	2523740799	3.204	29456816000
0	2528914908	3.205	3615436520000
0	2534114877	3.206	825409608000
0	2539325584	3.207	1815352752000
0	2544507620	3.208	262314736000
0	2549629882	3.209	1833685528000
0	2554766195	3.21	67316120000
0	2559872912	3.211	844435680000
0	2564983060	3.212	834866520000
0	2570140164	3.213	1881677224000
0	2575311138	3.214	54110568000
0	2580423162	3.215	50049304000
0	2585511865	3.216	1817124784000
0	2590558222	3.217	1840884624000
0	2595623784	3.218	58857376000
0	2600707891	3.219	42543008000
0	2605790894	3.22	2623363672000
0	2610872192	3.221	855664992000
0	2615930667	3.222	2334403112000
0	2620962655	3.223	1711365000000
0	2625996181	3.224	813869712000
0	2631042232	3.225	39677072000
0	2636031551	3.226	2627193720000
0	2641020259	3.227	1838443544000
0	2646016148	3.228	4396428400000
0	2650970241	3.229	34264528000
0	2655935909	3.23	1837507080000
0	2660890861	3.231	2639250768000
0	2665851587	3.232	6405166008000
0	2670832461	3.233	1836461400000
0	2675811078	3.234	1822785784000
0	2680746068	3.235	3594682248000
0	2685733964	3.236	37749096000
0	2690801956	3.237	4397580760000
0	2695870042	3.238	3594728600000
0	2700954270	3.239	3698314440000
0	2706014884	3.24	84372704000
0	2711091514	3.241	55881992000
0	2716139033	3.242	5410891584000
0	2721218835	3.243	1830969520000
0	2726301351	3.244	1818598208000
0	2731415957	3.245	44399272000
0	2736526274	3.246	1100386616000
0	2741666867	3.247	833531792000
0	2746794936	3.248	1061951600000
0	2751946731	3.249	2048928288000
0	2757108692	3.25	2116825144000
0	2762250721	3.251	47412008000
0	2767423797	3.252	261044624000
0	2772581948	3.253	278898256000
0	2777751717	3.254	4417816448000
0	2782942323	3.255	99548192000
0	2788107980	3.256	2060683488000
0	2793236823	3.257	850808288000
0	2798353763	3.258	1852322744000
0	2803454555	3.259	59319016000
0	2808516811	3.26	83346304000
0	2813615219	3.261	1836966864000
0	2818755699	3.262	264592064000
0	2823951994	3.263	845103016000
0	2829150486	3.264	2605597920000
0	2834299188	3.265	1831370784000
0	2839436058	3.266	1893795960000
0	2844602787	3.267	3595152896000
0	2849735235	3.268	31805720000
0	2854893823	3.269	46495008000
0	2860070599	3.27	1872979736000
0	2865259649	3.271	1831614600000
0	2870466303	3.272	1892344032000
0	2875707957	3.273	1831018968000
0	2880928515	3.274	1835422696000
0	2886141392	3.275	1834204240000
0	2891352046	3.276	1825814512000
0	2896579995	3.277	846581760000
0	2901786049	3.278	829929336000
0	2906991970	3.279	3597791080000
0	2912195525	3.28	1840694808000
0	2917393842	3.281	2623172696000
0	2922546861	3.282	3909523328000
0	2927650404	3.283	2618306688000
0	2932763743	3.284	5193848632000
0	2937851836	3.285	3604557936000
0	2942895933	3.286	50337336000
0	2947910347	3.287	40845672000
0	2952929216	3.288	3618838848000
0	2957932062	3.289	3621829360000
0	2962889835	3.29	2036576704000
0	2967831669	3.291	19848552000
0	2972745297	3.292	25885344000
0	2977684666	3.293	56546848000
0	2982648546	3.294	1625161536000
0	2987652776	3.295	1865506864000
0	2992660483	3.296	264937792000
0	2997661853	3.297	49433816000
0	3002678049	3.298	30081144000
0	3007716471	3.299	31307200000
0	3012781705	3.3	2061137552000
0	3017906888	3.301	5183814352000
0	3023037832	3.302	2844297032000
0	3028140925	3.303	69110584000
0	3033217311	3.304	819184904000
0	3038319354	3.305	1822371648000
0	3043426174	3.306	4415577376000
0	3048529204	3.307	3690300448000
0	3053575675	3.308	38796384000
0	3058573552	3.309	279950184000
0	3063560862	3.31	1040503408000
0	3068531867	3.311	1845134112000
0	3073469963	3.312	1823752520000
0	3078411662	3.313	43384928000
0	3083396368	3.314	846535280000
0	3088361351	3.315	2038995072000
0	3093300395	3.316	38431088000
0	3098231228	3.317	38750240000
0	3103183932	3.318	838136904000
0	3108163808	3.319	2069801056000
0	3113143331	3.32	1841334624000
0	3118077136	3.321	50645000000
0	3122993000	3.322	86586672000
0	3127901164	3.323	121593624000
0	3132802168	3.324	3603065768000
0	3137739264	3.325	55129904000
0	3142693890	3.326	5393575376000
0	3147634383	3.327	7174562400000
0	3152597160	3.328	1605103992000
0	3157575303	3.329	98545056000
0	3162540111	3.33	40143424000
0	3167508803	3.331	5407398408000
0	3172474820	3.332	2612236208000
0	3177465800	3.333	4899628656000
0	3182440748	3.334	59885176000
0	3187433054	3.335	1843565752000
0	3192451794	3.336	2621721512000
0	3197435185	3.337	52216008000
0	3202417146	3.338	837612008000
0	3207376495	3.339	1604113448000
0	3212301351	3.34	36878896000
0	3217198355	3.341	5399199808000
0	3222105168	3.342	2615604536000
0	3226957254	3.343	2606797720000
0	3231794617	3.344	296752808000
0	3236639440	3.345	2034042272000
0	3241524965	3.346	832340488000
0	3246355720	3.347	51774768000
0	3251195026	3.348	38941072000
0	3255996005	3.349	1841402776000
0	3260776134	3.35	845040400000
0	3265583417	3.351	823204744000
0	3270403352	3.352	1835729848000
0	3275243350	3.353	4385502976000
0	3280092762	3.354	58181632000
0	3284929201	3.355	1687551360000
0	3289761444	3.356	1826998592000
0	3294570326	3.357	4423648240000
0	3299381933	3.358	1848713064000
0	3304174609	3.359	92794336000
0	3308955832	3.36	1063762976000
0	3313737668	3.361	1050330952000
0	3318529503	3.362	1834618568000
0	3323330001	3.363	2054888768000
0	3328117061	3.364	3833132288000
0	3332917416	3.365	1899581032000
0	3337711236	3.366	2618112608000
0	3342519753	3.367	54750064000
0	3347305416	3.368	4329356008000
0	3352072806	3.369	1826607800000
0	3356837754	3.37	3832644984000
0	3361636109	3.371	2611912592000
0	3366478359	3.372	1843096344000
0	3371351100	3.373	58837224000
0	3376230714	3.374	29780368000
0	3381126123	3.375	1838010624000
0	3385997669	3.376	1812580648000
0	3390915968	3.377	3612754120000
0	3395842383	3.378	818577568000
0	3400812464	3.379	2834890128000
0	3405810769	3.38	3619774992000
0	3410850644	3.381	152438592000
0	3415921251	3.382	2035770672000
0	3421009502	3.383	1833394008000
0	3426106960	3.384	44000640000
0	3431244089	3.385	1829753224000
0	3436336652	3.386	32937976000
0	3441442221	3.387	264161944000
0	3446565593	3.388	248260088000
0	3451640175	3.389	23462072000
0	3456659264	3.39	829074840000
0	3461672109	3.391	47333888000
0	3466709766	3.392	41674440000
0	3471704693	3.393	79955992000
0	3476648179	3.394	3850414408000
0	3481535407	3.395	36090912000
0	3486395892	3.396	248899296000
0	3491259365	3.397	257934936000
0	3496110041	3.398	1828996592000
0	3500948524	3.399	5395719864000
0	3505784708	3.4	3837838136000
0	3510635168	3.401	2634619024000
0	3515467830	3.402	1061840480000
0	3520284542	3.403	31336392000
0	3525110407	3.404	957166304000
0	3529951040	3.405	1825493544000
0	3534795708	3.406	1829151448000
0	3539645010	3.407	25495840000
0	3544480919	3.408	821638760000
0	3549301062	3.409	3608221304000
0	3554125130	3.41	853023208000
0	3558961380	3.411	824833848000
0	3563777609	3.412	2073239768000
0	3568602618	3.413	3610267352000
0	3573432343	3.414	36437288000
0	3578289632	3.415	4391358032000
0	3583108358	3.416	3835466712000
0	3587921373	3.417	267976960000
0	3592757201	3.418	3616289840000
0	3597589476	3.419	3610816304000
0	3602443650	3.42	1088668816000
0	3607299986	3.421	385722600000
0	3612158214	3.422	1818415504000
0	3617017781	3.423	1838746448000
0	3621861086	3.424	3824343832000
0	3626712896	3.425	1846757496000
0	3631540598	3.426	3610032728000
0	3636362621	3.427	29262424000
0	3641187408	3.428	5461443448000
0	3646029125	3.429	7989721320000
0	3650847367	3.43	1827315488000
0	3655660023	3.431	3608806432000
0	3660491747	3.432	3827460800000
0	3665272813	3.433	247056632000
0	3670041658	3.434	44585048000
0	3674799886	3.435	41432072000
0	3679580251	3.436	1825156240000
0	3684320071	3.437	1895104728000
0	3689079776	3.438	67931848000
0	3693853700	3.439	3477992936000
0	3698609721	3.44	826926416000
0	3703370206	3.441	101694320000
0	3708119537	3.442	258957032000
0	3712864408	3.443	1843782872000
0	3717573386	3.444	1830928568000
0	3722288798	3.445	119545440000
0	3727009763	3.446	255031232000
0	3731734662	3.447	1857222728000
0	3736443721	3.448	38267096000
0	3741164019	3.449	855308144000
0	3745853472	3.45	60480584000
0	3750569229	3.451	2623775376000
0	3755278555	3.452	36850216000
0	3760010159	3.453	1633475592000
0	3764760016	3.454	36260360000
0	3769478270	3.455	2426983376000
0	3774200066	3.456	1808579136000
0	3778934044	3.457	1855281472000
0	3783668410	3.458	1815901624000
0	3788360274	3.459	1819768800000
0	3793024472	3.46	1834838472000
0	3797684597	3.461	3615885664000
0	3802349773	3.462	7193690960000
0	3807041110	3.463	45127032000
0	3811706739	3.464	324193032000
0	3816371589	3.465	473447752000
0	3821018332	3.466	94567368000
0	3825662972	3.467	1825171896000
0	3830311098	3.468	828173344000
0	3834957528	3.469	2277995392000
0	3839595171	3.47	37482384000
0	3844236466	3.471	1862803168000
0	3848872231	3.472	1832878168000
0	3853489224	3.473	841502688000
0	3858084545	3.474	1847726016000
0	3862698892	3.475	51615280000
0	3867303372	3.476	868103744000
0	3871945267	3.477	3612689936000
0	3876567236	3.478	2613121952000
0	3881221047	3.479	2061823920000
0	3885878439	3.48	4407220832000
0	3890578071	3.481	34814568000
0	3895267225	3.482	2836698264000
0	3899977783	3.483	114262248000
0	3904696343	3.484	825701000000
0	3909405806	3.485	1047003040000
0	3914148405	3.486	45162328000
0	3918883086	3.487	2037609640000
0	3923606986	3.488	4397747912000
0	3928360743	3.489	3600355336000
0	3933104931	3.49	832271872000
0	3937868085	3.491	77410120000
0	3942626044	3.492	2066715920000
0	3947364435	3.493	41727200000
0	3952124282	3.494	4403253696000
0	3956899646	3.495	1612521536000
0	3961704821	3.496	3041766176000
0	3966514801	3.497	1627399096000
0	3971348227	3.498	54764112000
0	3976170526	3.499	36714608000
0	3980991167	3.5	49476600000
0	3985808243	3.501	35609936000
0	3990622455	3.502	2050861168000
0	3995443256	3.503	1067166600000
0	4000291836	3.504	3431805672000
0	4005134861	3.505	4392972632000
0	4009960712	3.506	53832200000
0	4014798551	3.507	59383584000
0	4019653881	3.508	2829661952000
0	4024521957	3.509	485813552000
0	4029402208	3.51	2674874504000
0	4034282185	3.511	839381832000
0	4039185899	3.512	1825229800000
0	4044086590	3.513	1814210928000
0	4048981162	3.514	1811653072000
0	4053881441	3.515	2818647064000
0	4058783087	3.516	1892698824000
0	4063653394	3.517	2616799184000
0	4068517438	3.518	58479320000
0	4073389519	3.519	2031765312000
0	4078240846	3.52	290103880000
0	4083047213	3.521	1808694872000
0	4087880492	3.522	2421994256000
0	4092722782	3.523	2263591264000
0	4097547288	3.524	24349992000
0	4102367879	3.525	38016816000
0	4107177371	3.526	1822650704000
0	4111991075	3.527	2627650960000
0	4116841575	3.528	1046112384000
0	4121726603	3.529	1840672376000
0	4126612673	3.53	2026799544000
0	4131529676	3.531	47604888000
0	4136477382	3.532	1814439952000
0	4141463048	3.533	4418078832000
0	4146420528	3.534	44836800000
0	4151335665	3.535	43402400000
0	4156213407	3.536	1617341784000
0	4161091976	3.537	824739128000
0	4165960253	3.538	1817722088000
0	4170819379	3.539	1817378944000
0	4175667868	3.54	79022960000
0	4180508509	3.541	253956016000
0	4185321337	3.542	1816178184000
0	4190123310	3.543	4038750696000
0	4194921823	3.544	4406334528000
0	4199727929	3.545	65196936000
0	4204541514	3.546	36648512000
0	4209366183	3.547	1816823200000
0	4214225579	3.548	3612685176000
0	4219096823	3.549	3606787792000
0	4223979387	3.55	44492424000
0	4228865763	3.551	66011800000
0	4233771793	3.552	257658496000
0	4238672467	3.553	3610349680000
0	4243608948	3.554	58362880000
0	4248579787	3.555	36167656000
0	4253554638	3.556	54631072000
0	4258574172	3.557	1851915216000
0	4263609450	3.558	2609432432000
0	4268609725	3.559	30511960000
0	4273589431	3.56	62858680000
0	4278577944	3.561	836776624000
0	4283570794	3.562	62587936000
0	4288546005	3.563	2842033120000
0	4293501652	3.564	3839106784000
0	4298415819	3.565	4392806072000
0	4303308251	3.566	3678526792000
0	4308206665	3.567	845499760000
0	4313079803	3.568	4477549080000
0	4317991524	3.569	2063720504000
0	4322915281	3.57	1847697144000
0	4327862295	3.571	256625120000
0	4332848841	3.572	31686304000
0	4337870527	3.573	885011480000
0	4342908799	3.574	44480736000
0	4347900900	3.575	821204704000
0	4352883682	3.576	33806464000
0	4357856362	3.577	826754976000
0	4362851186	3.578	5399130120000
0	4367853767	3.579	2477741048000
0	4372926688	3.58	2032616104000
0	4378001967	3.581	32720584000
0	4383096694	3.582	4391078208000
0	4388213080	3.583	1041550504000
0	4393306317	3.584	1099406000000
0	4398437066	3.585	57340600000
0	4403569794	3.586	1045234968000
0	4408711585	3.587	821462576000
0	4413875476	3.588	1819355672000
0	4419048976	3.589	2042227744000
0	4424197676	3.59	1841147824000
0	4429370066	3.591	1833059864000
0	4434513835	3.592	86538032000
0	4439665783	3.593	47036144000
0	4444744967	3.594	1635755400000
0	4449798580	3.595	36345096000
0	4454847440	3.596	73202568000
0	4459886471	3.597	394670064000
0	4464893774	3.598	1926012960000
0	4469877145	3.599	3668088720000
0	4474843284	3.6	2903723696000
0	4479790671	3.601	829213480000
0	4484709177	3.602	245264928000
0	4489626058	3.603	830277208000
0	4494538377	3.604	294556592000
0	4499438694	3.605	122458840000
0	4504351730	3.606	2843250720000
0	4509259584	3.607	2042919624000
0	4514149219	3.608	811449640000
0	4519030923	3.609	2415096744000
0	4523893700	3.61	1817905224000
0	4528739570	3.611	829772296000
0	4533597621	3.612	1701848176000
0	4538412988	3.613	44147680000
0	4543196930	3.614	5408708168000
0	4547997171	3.615	46388544000
0	4552832299	3.616	1834046680000
0	4557655917	3.617	2431431464000
0	4562482504	3.618	2638916288000
0	4567321385	3.619	21579528000
0	4572154677	3.62	2610538440000
0	4577010154	3.621	1830671784000
0	4581869362	3.622	258576256000
0	4586706243	3.623	3633036632000
0	4591503992	3.624	853800448000
0	4596261437	3.625	1835410144000
0	4601024604	3.626	51981664000
0	4605789718	3.627	255253688000
0	4610541470	3.628	1886898384000
0	4615259080	3.629	40894392000
0	4619965039	3.63	4064365048000
0	4624659910	3.631	1806190176000
0	4629334852	3.632	2679996192000
0	4634038297	3.633	62699152000
0	4638739385	3.634	5498338440000
0	4643456696	3.635	3604803368000
0	4648161207	3.636	58114840000
0	4652862824	3.637	841316632000
0	4657567272	3.638	3621844480000
0	4662297382	3.639	832657416000
0	4667053104	3.64	4052867944000
0	4671818841	3.641	257463504000
0	4676609773	3.642	2043699384000
0	4681453982	3.643	1828654696000
0	4686324520	3.644	6207374888000
0	4691223826	3.645	4410487608000
0	4696147404	3.646	6180540048000
0	4701070541	3.647	105085120000
0	4706003412	3.648	322952448000
0	4710955459	3.649	46896872000
0	4715912972	3.65	275998160000
0	4720883366	3.651	857903000000
0	4725845088	3.652	1858113312000
0	4730793934	3.653	1843200264000
0	4735749861	3.654	3623393576000
0	4740712811	3.655	2047639128000
0	4745675205	3.656	4403557496000
0	4750678327	3.657	263545712000
0	4755654606	3.658	824710864000
0	4760670870	3.659	2256706440000
0	4765643997	3.66	833829584000
0	4770591076	3.661	1830519408000
0	4775534522	3.662	854751400000
0	4780443974	3.663	42786712000
0	4785343534	3.664	838083008000
0	4790232150	3.665	67082616000
0	4795102483	3.666	245941304000
0	4799983822	3.667	1836995808000
0	4804847936	3.668	2053950944000
0	4809723873	3.669	46552904000
0	4814615788	3.67	3822235808000
0	4819495631	3.671	834188168000
0	4824354104	3.672	58406528000
0	4829189689	3.673	815903456000
0	4834039674	3.674	1822918720000
0	4838861151	3.675	43583560000
0	4843660858	3.676	88088200000
0	4848478790	3.677	2625363032000
0	4853343244	3.678	60926304000
0	4858216102	3.679	1823004048000
0	4863072993	3.68	846809456000
0	4867970937	3.681	249847104000
0	4872857776	3.682	1827836792000
0	4877762038	3.683	2630146456000
0	4882689164	3.684	2616159768000
0	4887623315	3.685	42203880000
0	4892558729	3.686	59914664000
0	4897505483	3.687	43994848000
0	4902455496	3.688	843853552000
0	4907433085	3.689	19251184000
0	4912412896	3.69	29043272000
0	4917425120	3.691	1825615032000
0	4922449263	3.692	832270848000
0	4927482769	3.693	44608592000
0	4932550991	3.694	28689152000
0	4937640235	3.695	1820247912000
0	4942775042	3.696	1848881584000
0	4947901168	3.697	1616574128000
0	4953061187	3.698	39729192000
0	4958236146	3.699	1893058248000
0	4963394954	3.7	64177400000
0	4968514495	3.701	40007176000
0	4973598418	3.702	1614440776000
0	4978682503	3.703	1039732672000
0	4983740764	3.704	839753152000
0	4988768924	3.705	3607154720000
0	4993839806	3.706	70803744000
0	4998912607	3.707	4414591168000
0	5004012158	3.708	2844997104000
0	5009082577	3.709	49091032000
0	5014141576	3.71	2605295832000
0	5019196100	3.711	43658424000
0	5024248309	3.712	842553136000
0	5029302605	3.713	2281344088000
0	5034346691	3.714	1822877624000
0	5039424744	3.715	5187164984000
0	5044568133	3.716	80534056000
0	5049701931	3.717	4408548960000
0	5054800433	3.718	1833220800000
0	5059905104	3.719	1823995016000
0	5065028605	3.72	90356736000
0	5070126258	3.721	841186800000
0	5075218686	3.722	2846891816000
0	5080320514	3.723	1851212672000
0	5085442332	3.724	2615754464000
0	5090582924	3.725	57364872000
0	5095699913	3.726	52116192000
0	5100837888	3.727	3402630248000
0	5105995315	3.728	3662117184000
0	5111151677	3.729	270590672000
0	5116330897	3.73	1039906368000
0	5121447521	3.731	54571104000
0	5126586505	3.732	832253928000
0	5131719307	3.733	2623511632000
0	5136859200	3.734	3842033976000
0	5141999878	3.735	1832871800000
0	5147125241	3.736	1059096720000
0	5152261797	3.737	830654456000
0	5157364879	3.738	50035848000
0	5162429945	3.739	2630583208000
0	5167446061	3.74	888003152000
0	5172491664	3.741	855184704000
0	5177509586	3.742	43665600000
0	5182482631	3.743	2059887624000
0	5187438370	3.744	4413655384000
0	5192353036	3.745	43273048000
0	5197256196	3.746	840740912000
0	5202111649	3.747	2032330312000
0	5206963017	3.748	4984655792000
0	5211834740	3.749	1828680416000
0	5216716201	3.75	72679384000
0	5221619922	3.751	61097816000
0	5226493514	3.752	5283188312000
0	5231334649	3.753	111483488000
0	5236216992	3.754	1821970616000
0	5241122959	3.755	2045738968000
0	5246091725	3.756	316398824000
0	5251055536	3.757	856398744000
0	5256017390	3.758	1845804880000
0	5260946955	3.759	56787984000
0	5265901505	3.76	3435813624000
0	5270848575	3.761	51156240000
0	5275796846	3.762	113787552000
0	5280745576	3.763	46304888000
0	5285679646	3.764	1045861368000
0	5290626709	3.765	156046040000
0	5295572768	3.766	1842302488000
0	5300508816	3.767	55037416000
0	5305435061	3.768	1821399544000
0	5310367448	3.769	248018008000
0	5315294075	3.77	841085200000
0	5320253081	3.771	1625302648000
0	5325198954	3.772	20539904000
0	5330176092	3.773	1809950128000
0	5335140479	3.774	3613979824000
0	5340111396	3.775	3815719192000
0	5345103487	3.776	56445272000
0	5350086239	3.777	1822062312000
0	5355064823	3.778	850124088000
0	5360071654	3.779	3640664824000
0	5365021905	3.78	182582152000
0	5369982607	3.781	1838601168000
0	5374943335	3.782	1828079408000
0	5379903918	3.783	1616883432000
0	5384833453	3.784	1825718608000
0	5389756266	3.785	249032808000
0	5394692326	3.786	848552232000
0	5399629088	3.787	33664256000
0	5404528245	3.788	1042990632000
0	5409398053	3.789	819430096000
0	5414282912	3.79	834651376000
0	5419165680	3.791	106566928000
0	5424046598	3.792	1825591832000
0	5428937112	3.793	38719352000
0	5433775490	3.794	5198185192000
0	5438607977	3.795	1833075240000
0	5443480902	3.796	1845674920000
0	5448338929	3.797	256414816000
0	5453155975	3.798	1814912128000
0	5457970163	3.799	836117968000
0	5462786646	3.8	267942592000
0	5467578943	3.801	1836600368000
0	5472373616	3.802	2422966000000
0	5477204527	3.803	36897560000
0	5482033963	3.804	315004432000
0	5486872337	3.805	3460189544000
0	5491718870	3.806	1840649880000
0	5496542424	3.807	41040904000
0	5501342601	3.808	896161720000
0	5506181210	3.809	282132440000
0	5511038612	3.81	50752848000
0	5515909870	3.811	258128432000
0	5520775787	3.812	832137224000
0	5525669184	3.813	2637783648000
0	5530546315	3.814	2051684456000
0	5535410226	3.815	1625748104000
0	5540270400	3.816	2611724912000
0	5545150075	3.817	824946872000
0	5550037641	3.818	263972976000
0	5554941617	3.819	1867470352000
0	5559835345	3.82	1853785496000
0	5564767493	3.821	1129099776000
0	5569678746	3.822	1634816864000
0	5574587923	3.823	2864776568000
0	5579494784	3.824	846291304000
0	5584423535	3.825	3596283840000
0	5589356701	3.826	134158104000
0	5594301942	3.827	41147336000
0	5599260433	3.828	2871379328000
0	5604226128	3.829	57371360000
0	5609211671	3.83	816169800000
0	5614236781	3.831	3630137928000
0	5619297272	3.832	4606257136000
0	5624356440	3.833	259651552000
0	5629407129	3.834	3826209640000
0	5634461397	3.835	33052952000
0	5639515134	3.836	58400280000
0	5644631923	3.837	1833586840000
0	5649805103	3.838	2840125552000
0	5654993382	3.839	113240880000
0	5660175369	3.84	1890911288000
0	5665400531	3.841	42422896000
0	5670615255	3.842	62988496000
0	5675862376	3.843	1875545632000
0	5681111541	3.844	828057448000
0	5686398120	3.845	2610804872000
0	5691713968	3.846	6208601608000
0	5697014766	3.847	823573512000
0	5702318320	3.848	44682888000
0	5707612575	3.849	936606360000
0	5712898902	3.85	1853274224000
0	5718175238	3.851	27937224000
0	5723414623	3.852	4409409968000
0	5728635537	3.853	842652752000
0	5733833292	3.854	6170855576000
0	5738969180	3.855	832070032000
0	5744044127	3.856	1827297048000
0	5749095458	3.857	260776872000
0	5754115913	3.858	102697728000
0	5759144434	3.859	1264290576000
0	5764128688	3.86	43030264000
0	5769086539	3.861	28878240000
0	5774026996	3.862	49802976000
0	5778948845	3.863	33389720000
0	5783881822	3.864	3617273760000
0	5788811181	3.865	1620340416000
0	5793746880	3.866	1037467912000
0	5798710164	3.867	830589096000
0	5803673442	3.868	2612582208000
0	5808664768	3.869	3818234368000
0	5813628389	3.87	1817926264000
0	5818558617	3.871	41567512000
0	5823517288	3.872	2254613488000
0	5828467897	3.873	31156704000
0	5833405796	3.874	38793576000
0	5838332778	3.875	888503808000
0	5843262449	3.876	3619847024000
0	5848179357	3.877	99853664000
0	5853114658	3.878	38360048000
0	5858042581	3.879	849040512000
0	5862973442	3.88	70266136000
0	5867890626	3.881	2607287400000
0	5872798869	3.882	1818949312000
0	5877732707	3.883	317652464000
0	5882606596	3.884	33108056000
0	5887455946	3.885	253730120000
0	5892320058	3.886	54575672000
0	5897185286	3.887	827441736000
0	5902040962	3.888	30820480000
0	5906890737	3.889	2036774840000
0	5911754798	3.89	69594848000
0	5916596070	3.891	1046869320000
0	5921442687	3.892	854512928000
0	5926306638	3.893	4618432216000
0	5931174041	3.894	2627687576000
0	5936076927	3.895	5247173776000
0	5940994899	3.896	1828205128000
0	5945953447	3.897	1833175072000
0	5950926807	3.898	1824845488000
0	5955900923	3.899	4622798672000
0	5960927411	3.9	846285832000
0	5965992917	3.901	1831662560000
0	5971028327	3.902	43213448000
0	5976071246	3.903	110047840000
0	5981109057	3.904	252621136000
0	5986137170	3.905	1832098608000
0	5991142730	3.906	1876365184000
0	5996165008	3.907	891365560000
0	6001164421	3.908	270358024000
0	6006153098	3.909	3857288776000
0	6011134869	3.91	37529184000
0	6016094953	3.911	2613471808000
0	6021088244	3.912	2833832552000
0	6026098377	3.913	65750680000
0	6031121485	3.914	5415984504000
0	6036163209	3.915	264248664000
0	6041212004	3.916	2603635112000
0	6046255482	3.917	80059920000
0	6051283300	3.918	31591480000
0	6056287542	3.919	1043310704000
0	6061265698	3.92	1850422352000
0	6066239048	3.921	37429464000
0	6071147084	3.922	1840838392000
0	6076047539	3.923	1831849512000
0	6080915984	3.924	5387449944000
0	6085809082	3.925	3610064440000
0	6090684530	3.926	6194559736000
0	6095554062	3.927	1823070040000
0	6100484140	3.928	66486064000
0	6105427540	3.929	1824637128000
0	6110390061	3.93	85332248000
0	6115379025	3.931	3660042656000
0	6120403078	3.932	4391072128000
0	6125426830	3.933	812733192000
0	6130469508	3.934	2625565072000
0	6135515218	3.935	1616884600000
0	6140559195	3.936	1832196272000
0	6145614023	3.937	25361168000
0	6150703779	3.938	3606846968000
0	6155764548	3.939	39664560000
0	6160836819	3.94	1824650880000
0	6165916900	3.941	4404781752000
0	6170992083	3.942	1837006448000
0	6176027818	3.943	1877302632000
0	6181097230	3.944	264864232000
0	6186162746	3.945	57140192000
0	6191227764	3.946	2835463464000
0	6196335329	3.947	4411906816000
0	6201466681	3.948	883265304000
0	6206620988	3.949	2621846632000
0	6211805127	3.95	1821403368000
0	6217008573	3.951	127269584000
0	6222239115	3.952	908254632000
0	6227496094	3.953	1816817200000
0	6232744974	3.954	4392397736000
0	6237975222	3.955	1819611072000
0	6243228029	3.956	255085928000
0	6248513202	3.957	48851224000
0	6253815286	3.958	36133744000
0	6259113092	3.959	3605629304000
0	6264387479	3.96	245645144000
0	6269676778	3.961	43365600000
0	6274957392	3.962	2609651096000
0	6280246243	3.963	5196737872000
0	6285530541	3.964	46056256000
0	6290833580	3.965	38076528000
0	6296131274	3.966	3630545680000
0	6301379264	3.967	1819751960000
0	6306636867	3.968	55652112000
0	6311889806	3.969	272241136000
0	6317105674	3.97	30449848000
0	6322313119	3.971	1816174264000
0	6327501379	3.972	59592976000
0	6332711277	3.973	1840571888000
0	6337925395	3.974	842263552000
0	6343121253	3.975	3400254736000
0	6348315815	3.976	1845848704000
0	6353510663	3.977	1858245328000
0	6358744941	3.978	71776280000
0	6363954190	3.979	56546392000
0	6369122615	3.98	5998323456000
0	6374291659	3.981	36005752000
0	6379402780	3.982	1631373584000
0	6384549624	3.983	1062526248000
0	6389650266	3.984	52072376000
0	6394735641	3.985	85221264000
0	6399770291	3.986	821453048000
0	6404808275	3.987	78380736000
0	6409826241	3.988	57359360000
0	6414795173	3.989	826283168000
0	6419755108	3.99	2842574736000
0	6424678158	3.991	1821762168000
0	6429582003	3.992	3632266576000
0	6434471292	3.993	2095136736000
0	6439366484	3.994	827179872000
0	6444225426	3.995	256900408000
0	6449069292	3.996	37941512000
0	6453897021	3.997	1062526392000
0	6458740968	3.998	55809528000
0	6463560102	3.999	4622977888000
0	6468381604	4	2627537968000
0	6473228551	4.001	1819188832000
0	6478065913	4.002	1832741096000
0	6482895603	4.003	4930868448000
0	6487692916	4.004	43246376000
0	6492513664	4.005	2617939848000
0	6497315477	4.006	3654502040000
0	6502141781	4.007	40545304000
0	6506942480	4.008	853172024000
0	6511746412	4.009	1836566856000
0	6516565279	4.01	1825095968000
0	6521391578	4.011	1826669408000
0	6526195971	4.012	829435824000
0	6530976158	4.013	901724264000
0	6535771569	4.014	829375248000
0	6540544501	4.015	31635744000
0	6545298798	4.016	1890821080000
0	6550063768	4.017	1820788200000
0	6554846584	4.018	35227096000
0	6559625672	4.019	2614309720000
0	6564426217	4.02	480879040000
0	6569207431	4.021	820975624000
0	6573975327	4.022	2604864832000
0	6578764088	4.023	91198104000
0	6583580301	4.024	48527784000
0	6588390376	4.025	48025280000
0	6593171999	4.026	2404416320000
0	6597979268	4.027	2607272872000
0	6602795119	4.028	468643920000
0	6607620334	4.029	2815102640000
0	6612456269	4.03	37049552000
0	6617297820	4.031	5414782760000
0	6622182710	4.032	2848800816000
0	6627089852	4.033	1823563992000
0	6632008845	4.034	1814718872000
0	6636938239	4.035	832193136000
0	6641854869	4.036	1865402712000
0	6646786707	4.037	5388642696000
0	6651749172	4.038	93632752000
0	6656728427	4.039	279702032000
0	6661754575	4.04	1849370904000
0	6666782747	4.041	1816569688000
0	6671841706	4.042	2614330776000
0	6676912326	4.043	816307392000
0	6681985324	4.044	1916904040000
0	6687064867	4.045	2064472320000
0	6692137078	4.046	271524472000
0	6697220129	4.047	1844001584000
0	6702278422	4.048	31831312000
0	6707385720	4.049	4187301392000
0	6712458155	4.05	1835941632000
0	6717544189	4.051	2605023448000
0	6722623248	4.052	821264536000
0	6727692591	4.053	2078723040000
0	6732784177	4.054	251887640000
0	6737833237	4.055	50438824000
0	6742872672	4.056	890855368000
0	6747895186	4.057	827269600000
0	6752898726	4.058	1618570320000
0	6757892089	4.059	245792304000
0	6762839683	4.06	36397144000
0	6767785081	4.061	2824516304000
0	6772707258	4.062	1609231792000
0	6777643234	4.063	32609240000
0	6782620793	4.064	50746344000
0	6787592411	4.065	2056405008000
0	6792567116	4.066	325295176000
0	6797573355	4.067	1853071536000
0	6802545957	4.068	1830145928000
0	6807530606	4.069	1813300808000
0	6812513595	4.07	1825471400000
0	6817471705	4.071	2027606328000
0	6822440027	4.072	2436581776000
0	6827411562	4.073	49772232000
0	6832369863	4.074	4633120816000
0	6837327608	4.075	5417819856000
0	6842292473	4.076	1816051768000
0	6847233249	4.077	2622878200000
0	6852135636	4.078	2096932120000
0	6857026258	4.079	857551768000
0	6861908699	4.08	841656992000
0	6866792909	4.081	868891136000
0	6871650381	4.082	46247952000
0	6876541629	4.083	120010760000
0	6881414168	4.084	36802152000
0	6886314989	4.085	848732112000
0	6891213972	4.086	97203424000
0	6896130559	4.087	43426816000
0	6901078705	4.088	52322400000
0	6906036969	4.089	2614021104000
0	6910989450	4.09	479690000000
0	6916003313	4.091	1969894960000
0	6921019914	4.092	57099600000
0	6926026564	4.093	1817495992000
0	6931040023	4.094	3628652616000
0	6936021166	4.095	2069279056000
0	6940965762	4.096	1828414368000
0	6945926508	4.097	5422028560000
0	6950894280	4.098	4401744824000
0	6955860927	4.099	2632825544000
0	6960865223	4.1	68364632000
0	6965895456	4.101	4187244992000
0	6970953079	4.102	2865038160000
0	6976041313	4.103	2061551128000
0	6981182766	4.104	46300512000
0	6986297987	4.105	38064808000
0	6991414192	4.106	2626233040000
0	6996529445	4.107	1827055576000
0	7001671245	4.108	1948538560000
0	7006773121	4.109	1836756128000
0	7011883251	4.11	254434064000
0	7016992382	4.111	1835635640000
0	7022103117	4.112	101811752000
0	7027194860	4.113	38993440000
0	7032303199	4.114	31709512000
0	7037387564	4.115	50767720000
0	7042447131	4.116	1829627112000
0	7047476580	4.117	31885360000
0	7052510174	4.118	31328464000
0	7057501946	4.119	3399801800000
0	7062486543	4.12	1854105528000
0	7067455613	4.121	45360696000
0	7072440805	4.122	35146368000
0	7077421508	4.123	55162448000
0	7082417798	4.124	65530136000
0	7087410459	4.125	6401808928000
0	7092420426	4.126	3610282944000
0	7097463276	4.127	279926480000
0	7102484440	4.128	850557104000
0	7107501485	4.129	40132584000
0	7112490109	4.13	37443128000
0	7117456402	4.131	1899078056000
0	7122426117	4.132	160088936000
0	7127370260	4.133	4416601376000
0	7132339793	4.134	2620080984000
0	7137316014	4.135	26523520000
0	7142301728	4.136	2633128976000
0	7147265465	4.137	46417376000
0	7152197856	4.138	264005728000
0	7157136111	4.139	2623435792000
0	7162089179	4.14	324276544000
0	7167049940	4.141	4396144528000
0	7172023349	4.142	1831736600000
0	7177088840	4.143	117072424000
0	7182169427	4.144	3631536000000
0	7187244911	4.145	46157400000
0	7192335443	4.146	254856376000
0	7197423656	4.147	60454512000
0	7202504395	4.148	1818656968000
0	7207569111	4.149	3635967472000
0	7212656831	4.15	2837211200000
0	7217797386	4.151	259804544000
0	7222919600	4.152	23361672000
0	7227992499	4.153	833833608000
0	7233047237	4.154	35930648000
0	7238101291	4.155	966078464000
0	7243171711	4.156	259762064000
0	7248218181	4.157	1816199696000
0	7253276735	4.158	21918000000
0	7258326621	4.159	1843608696000
0	7263373159	4.16	4393567608000
0	7268478728	4.161	6400997624000
0	7273604569	4.162	1619128264000
0	7278742559	4.163	3695796136000
0	7283897477	4.164	5415173824000
0	7289051577	4.165	2674230712000
0	7294167296	4.166	1825075280000
0	7299275700	4.167	3607147832000
0	7304400529	4.168	2678076032000
0	7309548829	4.169	130149992000
0	7314704977	4.17	845418864000
0	7319812498	4.171	5388842936000
0	7324933627	4.172	1895088976000
0	7330036237	4.173	30923864000
0	7335098278	4.174	44221640000
0	7340177599	4.175	856881600000
0	7345247405	4.176	53717304000
0	7350364502	4.177	1820570080000
0	7355485470	4.178	43731352000
0	7360597844	4.179	1056976992000
0	7365664669	4.18	69060104000
0	7370743842	4.181	1857858360000
0	7375805403	4.182	1852622104000
0	7380888467	4.183	2633035816000
0	7385999923	4.184	36959888000
0	7391144477	4.185	52901936000
0	7396265336	4.186	52060608000
0	7401336920	4.187	50987664000
0	7406362293	4.188	1822579000000
0	7411378973	4.189	1828628800000
0	7416437449	4.19	26072528000
0	7421489565	4.191	41301448000
0	7426533005	4.192	2633448848000
0	7431587511	4.193	2817784968000
0	7436692714	4.194	70348680000
0	7441807879	4.195	51133840000
0	7446912420	4.196	45725744000
0	7452058991	4.197	1053773672000
0	7457243848	4.198	270633760000
0	7462424332	4.199	3413583584000
0	7467629851	4.2	55176256000
0	7472842739	4.201	1634201776000
0	7478094492	4.202	2613066464000
0	7483348986	4.203	1830878016000
0	7488609414	4.204	1824559448000
0	7493853836	4.205	2063851816000
0	7499073065	4.206	4389780440000
0	7504289860	4.207	38116600000
0	7509532480	4.208	1813832008000
0	7514770033	4.209	179985304000
0	7520017693	4.21	7259845280000
0	7525244721	4.211	2629541448000
0	7530485246	4.212	832519232000
0	7535713657	4.213	50164688000
0	7540943312	4.214	124794096000
0	7546185162	4.215	3398909432000
0	7551433144	4.216	2684401544000
0	7556636329	4.217	1840088480000
0	7561851361	4.218	5191952336000
0	7567077466	4.219	2049897224000
0	7572281569	4.22	1269472112000
0	7577491092	4.221	48659088000
0	7582728405	4.222	57943048000
0	7587920034	4.223	3624131136000
0	7593118799	4.224	3609826640000
0	7598267615	4.225	3612945888000
0	7603402219	4.226	4412436040000
0	7608541712	4.227	1612706304000
0	7613682093	4.228	827555248000
0	7618779263	4.229	1886888432000
0	7623886560	4.23	34916904000
0	7628959286	4.231	3640870768000
0	7634001529	4.232	2047505096000
0	7639065163	4.233	2277866640000
0	7644158189	4.234	45636488000
0	7649240627	4.235	121135112000
0	7654325358	4.236	3404802352000
0	7659388537	4.237	266965376000
0	7664425606	4.238	3826509000000
0	7669414470	4.239	57745760000
0	7674384785	4.24	837177304000
0	7679297337	4.241	47751184000
0	7684164580	4.242	2837747840000
0	7689071266	4.243	4399084008000
0	7693991458	4.244	489391784000
0	7698902721	4.245	1824734704000
0	7703769927	4.246	3605360848000
0	7708598600	4.247	2694440376000
0	7713417447	4.248	2259322152000
0	7718262944	4.249	2620494664000
0	7723109248	4.25	4405088464000
0	7727941446	4.251	1812905512000
0	7732747067	4.252	3620040936000
0	7737564986	4.253	72973192000
0	7742373398	4.254	1842204016000
0	7747175036	4.255	38306616000
0	7751968647	4.256	47447624000
0	7756775238	4.257	2613427392000
0	7761573052	4.258	2624586320000
0	7766346801	4.259	317857016000
0	7771137664	4.26	1895844016000
0	7775915496	4.261	3611883992000
0	7780689861	4.262	115882824000
0	7785476587	4.263	1842017848000
0	7790247636	4.264	2657049312000
0	7795055674	4.265	5182375616000
0	7799850666	4.266	257626816000
0	7804639041	4.267	1656343960000
0	7809430676	4.268	3669533768000
0	7814213882	4.269	1875575464000
0	7819000007	4.27	4848545752000
0	7823817006	4.271	1873585784000
0	7828659875	4.272	56655216000
0	7833523453	4.273	34819496000
0	7838396987	4.274	270080576000
0	7843269175	4.275	52901816000
0	7848131299	4.276	249068432000
0	7853005094	4.277	37462584000
0	7857876585	4.278	1841041752000
0	7862719448	4.279	64150736000
0	7867579189	4.28	2036056544000
0	7872437644	4.281	110080016000
0	7877279554	4.282	1886327248000
0	7882135364	4.283	2103109384000
0	7887006068	4.284	1824993120000
0	7891921563	4.285	1061386712000
0	7896842997	4.286	1834287864000
0	7901807010	4.287	1849244880000
0	7906801593	4.288	1838145712000
0	7911819029	4.289	5184641408000
0	7916837832	4.29	285328944000
0	7921887861	4.291	30209440000
0	7926963371	4.292	1820459968000
0	7931987880	4.293	37241456000
0	7937004533	4.294	1813426240000
0	7942048833	4.295	2847036960000
0	7947109345	4.296	1822718704000
0	7952146254	4.297	1813458424000
0	7957200534	4.298	37970552000
0	7962268317	4.299	35425320000
0	7967355615	4.3	3077784104000
0	7972471369	4.301	39362864000
0	7977556082	4.302	3607343864000
0	7982630543	4.303	35952976000
0	7987696130	4.304	45030160000
0	7992758128	4.305	1832771304000
0	7997786029	4.306	4624348120000
0	8002794719	4.307	4464218064000
0	8007779176	4.308	54402616000
0	8012815349	4.309	58175248000
0	8017854537	4.31	3603145144000
0	8022842117	4.311	62145008000
0	8027823805	4.312	2608548944000
0	8032800135	4.313	44621616000
0	8037767059	4.314	105064720000
0	8042712673	4.315	1054184816000
0	8047663285	4.316	3627427432000
0	8052643960	4.317	2648563312000
0	8057644242	4.318	2642515736000
0	8062617719	4.319	1824046808000
0	8067573343	4.32	248561680000
0	8072500573	4.321	2626998600000
0	8077424293	4.322	826090864000
0	8082315132	4.323	3614909208000
0	8087170959	4.324	2611668912000
0	8092021348	4.325	1834787752000
0	8096836583	4.326	2475541208000
0	8101656797	4.327	2610856136000
0	8106469736	4.328	2614663560000
0	8111324313	4.329	39617872000
0	8116180540	4.33	1838327544000
0	8121035531	4.331	7192362776000
0	8125894545	4.332	246863576000
0	8130723309	4.333	2646156280000
0	8135586463	4.334	3830582280000
0	8140480261	4.335	1645248608000
0	8145392818	4.336	1850752584000
0	8150277295	4.337	2258831552000
0	8155177311	4.338	44149168000
0	8160052771	4.339	2056524160000
0	8164941068	4.34	47697688000
0	8169835856	4.341	251126640000
0	8174769521	4.342	282263672000
0	8179735561	4.343	1722309328000
0	8184697576	4.344	1840098448000
0	8189634543	4.345	822125656000
0	8194576883	4.346	1902558496000
0	8199541011	4.347	827865944000
0	8204510033	4.348	3607935968000
0	8209525943	4.349	1827947032000
0	8214581489	4.35	2620178496000
0	8219694816	4.351	1823981048000
0	8224853136	4.352	851146568000
0	8230037703	4.353	1880293224000
0	8235211744	4.354	3051923512000
0	8240385107	4.355	1041678896000
0	8245589180	4.356	2601532704000
0	8250817840	4.357	3604750248000
0	8256009366	4.358	1894936856000
0	8261165731	4.359	2836247728000
0	8266362249	4.36	39552624000
0	8271516683	4.361	255767120000
0	8276666482	4.362	831919232000
0	8281839010	4.363	265880496000
0	8286999525	4.364	1848441992000
0	8292136515	4.365	82802912000
0	8297268947	4.366	51797320000
0	8302407142	4.367	1822218080000
0	8307553173	4.368	831025616000
0	8312678197	4.369	834756496000
0	8317827062	4.37	3903667056000
0	8323004696	4.371	44264480000
0	8328166147	4.372	66890000000
0	8333377510	4.373	852882568000
0	8338567656	4.374	2885335808000
0	8343724342	4.375	1619119448000
0	8348881192	4.376	3422265784000
0	8354061589	4.377	1870092200000
0	8359277076	4.378	5405555696000
0	8364510864	4.379	2680092216000
0	8369752514	4.38	4474213344000
0	8375025300	4.381	2633307800000
0	8380306836	4.382	2052405408000
0	8385622981	4.383	3619173224000
0	8390928229	4.384	92575600000
0	8396220648	4.385	3608342504000
0	8401454292	4.386	3614750856000
0	8406637711	4.387	1631282936000
0	8411843958	4.388	6224616768000
0	8417053623	4.389	39009960000
0	8422254256	4.39	41893696000
0	8427463133	4.391	2091948296000
0	8432655439	4.392	1815032576000
0	8437826422	4.393	1843948664000
0	8442962897	4.394	6252006200000
0	8448122932	4.395	260131696000
0	8453287777	4.396	304179448000
0	8458428790	4.397	246230192000
0	8463540873	4.398	49291808000
0	8468651268	4.399	3429203848000
0	8473750302	4.4	2612478608000
0	8478832536	4.401	1832493088000
0	8483893953	4.402	40722744000
0	8488969801	4.403	5183633704000
0	8494049855	4.404	25229392000
0	8499125366	4.405	45488032000
0	8504182711	4.406	2616562728000
0	8509246228	4.407	3620260032000
0	8514270443	4.408	1832298512000
0	8519297092	4.409	57938960000
0	8524318151	4.41	5404786280000
0	8529331132	4.411	258869192000
0	8534348163	4.412	831843648000
0	8539402747	4.413	54781296000
0	8544447923	4.414	2738403200000
0	8549506529	4.415	74752376000
0	8554561286	4.416	3605941952000
0	8559631688	4.417	844054448000
0	8564667793	4.418	32503600000
0	8569719485	4.419	2033875512000
0	8574796862	4.42	1847691448000
0	8579847747	4.421	826551328000
0	8584917718	4.422	45297352000
0	8589950296	4.423	3837204440000
0	8594960766	4.424	36135944000
0	8599962545	4.425	4424324432000
0	8604969380	4.426	2615061232000
0	8609973334	4.427	1832301752000
0	8614976631	4.428	248983584000
0	8619942505	4.429	46020328000
0	8624882114	4.43	1830133328000
0	8629858450	4.431	4383029880000
0	8634849257	4.432	1819470224000
0	8639830488	4.433	834126176000
0	8644804014	4.434	821670632000
0	8649772843	4.435	1828157712000
0	8654740162	4.436	1823894992000
0	8659666137	4.437	1808792760000
0	8664595173	4.438	281222496000
0	8669524455	4.439	30344288000
0	8674475504	4.44	1820757928000
0	8679447707	4.441	46340896000
0	8684467522	4.442	120734560000
0	8689468712	4.443	1841124584000
0	8694456776	4.444	2922993088000
0	8699469120	4.445	40673888000
0	8704510006	4.446	891163192000
0	8709523430	4.447	1809950520000
0	8714563214	4.448	43634392000
0	8719655788	4.449	2608178352000
0	8724760331	4.45	856023768000
0	8729863544	4.451	859168792000
0	8734956880	4.452	44379832000
0	8740049696	4.453	2055811400000
0	8745127799	4.454	50569440000
0	8750214175	4.455	86823104000
0	8755277988	4.456	1036458696000
0	8760345574	4.457	37102832000
0	8765416960	4.458	1921642184000
0	8770531540	4.459	1829333376000
0	8775628940	4.46	1896495888000
0	8780724663	4.461	2624991384000
0	8785810140	4.462	1827492768000
0	8790926456	4.463	2626229320000
0	8796080467	4.464	33584992000
0	8801221824	4.465	1826037520000
0	8806338278	4.466	865151024000
0	8811443801	4.467	18604448000
0	8816525232	4.468	2602699216000
0	8821611616	4.469	41447280000
0	8826667828	4.47	3620773008000
0	8831718047	4.471	116087128000
0	8836759691	4.472	36739320000
0	8841797382	4.473	1826573864000
0	8846830514	4.474	1824783832000
0	8851840824	4.475	818819752000
0	8856837950	4.476	3825023840000
0	8861809721	4.477	1876674112000
0	8866799801	4.478	47250848000
0	8871772565	4.479	2655803688000
0	8876753090	4.48	1817465152000
0	8881739236	4.481	841903736000
0	8886687360	4.482	1846994960000
0	8891608209	4.483	2033959984000
0	8896512634	4.484	1832744592000
0	8901397316	4.485	1033219224000
0	8906277078	4.486	57801072000
0	8911147537	4.487	2846411080000
0	8916001903	4.488	1047349552000
0	8920839508	4.489	1862254464000
0	8925677468	4.49	5467986304000
0	8930502032	4.491	3600330992000
0	8935324733	4.492	841648912000
0	8940159829	4.493	4395399568000
0	8945006752	4.494	4455099208000
0	8949843453	4.495	816260456000
0	8954660648	4.496	7185599336000
0	8959508427	4.497	4417551296000
0	8964338223	4.498	846084200000
0	8969150558	4.499	266086976000
0	8973951040	4.5	22222592000
0	8978738371	4.501	18289176000
0	8983507659	4.502	42234216000
0	8988272129	4.503	2036066056000
0	8993023784	4.504	246738400000
0	8997798937	4.505	841475856000
0	9002602091	4.506	4384324744000
0	9007398026	4.507	3608327088000
0	9012227615	4.508	82363344000
0	9017043473	4.509	2622671248000
0	9021859089	4.51	45680808000
0	9026649197	4.511	33385296000
0	9031465119	4.512	55209304000
0	9036261516	4.513	1836775168000
0	9041084239	4.514	2704208816000
0	9045907300	4.515	2656278120000
0	9050755817	4.516	3616955960000
0	9055639907	4.517	3688331792000
0	9060520636	4.518	816426936000
0	9065398910	4.519	1844721376000
0	9070304779	4.52	1859763328000
0	9075236670	4.521	5625731960000
0	9080173851	4.522	33956952000
0	9085121225	4.523	917306016000
0	9090086793	4.524	109648488000
0	9095015194	4.525	1817961648000
0	9099918029	4.526	3604886560000
0	9104838893	4.527	2597959480000
0	9109764520	4.528	2639104816000
0	9114694312	4.529	101586624000
0	9119603056	4.53	3612345192000
0	9124558661	4.531	1831901496000
0	9129489333	4.532	1835972808000
0	9134432079	4.533	834216712000
0	9139384838	4.534	56745096000
0	9144321554	4.535	2616408720000
0	9149236642	4.536	2042797248000
0	9154178068	4.537	840739712000
0	9159112292	4.538	1831757568000
0	9164030845	4.539	1829968248000
0	9168940651	4.54	1809724696000
0	9173850767	4.541	1856043552000
0	9178767618	4.542	260087200000
0	9183690397	4.543	98809528000
0	9188613975	4.544	4640116888000
0	9193569279	4.545	1051756288000
0	9198510927	4.546	1818453208000
0	9203434033	4.547	32614688000
0	9208392726	4.548	4453610064000
0	9213391194	4.549	1051677864000
0	9218418179	4.55	2623826480000
0	9223457900	4.551	845303152000
0	9228524347	4.552	43380960000
0	9233605258	4.553	5183046240000
0	9238696916	4.554	70794000000
0	9243807508	4.555	4398748896000
0	9248906684	4.556	74220352000
0	9254043548	4.557	3625595880000
0	9259186409	4.558	79456872000
0	9264357254	4.559	44167312000
0	9269532633	4.56	131181136000
0	9274682111	4.561	246569904000
0	9279821686	4.562	2045135232000
0	9284957348	4.563	2632690168000
0	9290093067	4.564	71097088000
0	9295212274	4.565	5974624384000
0	9300310125	4.566	1832743616000
0	9305387835	4.567	2622430232000
0	9310451265	4.568	1895116880000
0	9315495804	4.569	2265133152000
0	9320532916	4.57	1809701304000
0	9325634799	4.571	265604264000
0	9330737561	4.572	3413752384000
0	9335830845	4.573	35976320000
0	9340907837	4.574	2624650528000
0	9345998088	4.575	2628380096000
0	9351114483	4.576	43526280000
0	9356228734	4.577	2027727856000
0	9361266311	4.578	1851058216000
0	9366317365	4.579	62070808000
0	9371383045	4.58	1807919768000
0	9376449905	4.581	851375624000
0	9381504198	4.582	827381696000
0	9386522434	4.583	822290848000
0	9391505945	4.584	893709272000
0	9396480155	4.585	1839779416000
0	9401432691	4.586	1829268368000
0	9406353453	4.587	42515696000
0	9411239596	4.588	842969128000
0	9416082948	4.589	38647992000
0	9420895654	4.59	1836202832000
0	9425666711	4.591	2621481784000
0	9430420191	4.592	63566016000
0	9435180278	4.593	62332120000
0	9439970761	4.594	3676347104000
0	9444720935	4.595	1614970272000
0	9449501773	4.596	76450464000
0	9454292199	4.597	1676098352000
0	9459079684	4.598	5394507208000
0	9463880266	4.599	1827124472000
0	9468691577	4.6	853036800000
0	9473500758	4.601	1844257632000
0	9478329583	4.602	2116503360000
0	9483155070	4.603	1843727624000
0	9487982167	4.604	2637838248000
0	9492792654	4.605	2693752792000
0	9497608847	4.606	2034517816000
0	9502437526	4.607	1824835216000
0	9507248031	4.608	1619244552000
0	9512042847	4.609	1839433520000
0	9516843149	4.61	54813488000
0	9521680332	4.611	1831677728000
0	9526527871	4.612	833396928000
0	9531392985	4.613	1810127432000
0	9536244234	4.614	895752008000
0	9541077129	4.615	66199056000
0	9545915547	4.616	71759536000
0	9550718267	4.617	59627376000
0	9555505420	4.618	5410441288000
0	9560270263	4.619	4061154040000
0	9565047124	4.62	1816277232000
0	9569837206	4.621	54215864000
0	9574590488	4.622	815574528000
0	9579381271	4.623	892082264000
0	9584197269	4.624	851415024000
0	9589022813	4.625	23800368000
0	9593861338	4.626	39503008000
0	9598707525	4.627	5180419584000
0	9603548501	4.628	3607457168000
0	9608373371	4.629	2609188872000
0	9613222125	4.63	1826916304000
0	9618062291	4.631	3612841192000
0	9622899818	4.632	32483792000
0	9627755322	4.633	254110112000
0	9632599128	4.634	1830514464000
0	9637417111	4.635	53421208000
0	9642213784	4.636	2619163704000
0	9647025975	4.637	1824803864000
0	9651829055	4.638	114406112000
0	9656669180	4.639	31119136000
0	9661529955	4.64	256710480000
0	9666409632	4.641	3619809304000
0	9671298865	4.642	44692464000
0	9676202640	4.643	2641570120000
0	9681142568	4.644	60235552000
0	9686147639	4.645	1061331496000
0	9691177998	4.646	79496424000
0	9696218888	4.647	248734488000
0	9701293086	4.648	1869808920000
0	9706372919	4.649	70485584000
0	9711465523	4.65	1834164392000
0	9716583536	4.651	814667624000
0	9721684737	4.652	900643872000
0	9726778005	4.653	1814339824000
0	9731920380	4.654	57549688000
0	9737041284	4.655	844960104000
0	9742151299	4.656	49608784000
0	9747294450	4.657	1835661592000
0	9752435710	4.658	3614867200000
0	9757593193	4.659	92991320000
0	9762782046	4.66	3849013744000
0	9767997187	4.661	1817921768000
0	9773175589	4.662	44646744000
0	9778391981	4.663	847442088000
0	9783642002	4.664	3622774552000
0	9788909356	4.665	2025034352000
0	9794200595	4.666	840855760000
0	9799489021	4.667	74857208000
0	9804774316	4.668	46117032000
0	9810094267	4.669	4394596488000
0	9815443601	4.67	2609265832000
0	9820807850	4.671	5394591208000
0	9826168376	4.672	1609533600000
0	9831526245	4.673	1837477800000
0	9836893366	4.674	1897767384000
0	9842299131	4.675	2619748664000
0	9847698991	4.676	314403416000
0	9853135955	4.677	264691904000
0	9858567427	4.678	3622498976000
0	9863996101	4.679	32779064000
0	9869370830	4.68	30008304000
0	9874787984	4.681	1828207832000
0	9880265902	4.682	1106430656000
0	9885784572	4.683	2639130776000
0	9891261611	4.684	2614714248000
0	9896726274	4.685	45870440000
0	9902226613	4.686	59260960000
0	9907710665	4.687	3613610688000
0	9913170105	4.688	819897760000
0	9918549744	4.689	242555256000
0	9923910152	4.69	257762512000
0	9929244675	4.691	3413355104000
0	9934568295	4.692	1819864864000
0	9939861404	4.693	49027296000
0	9945169807	4.694	1848415496000
0	9950487386	4.695	2876431840000
0	9955833928	4.696	59227896000
0	9961200675	4.697	29727376000
0	9966575971	4.698	95629336000
0	9971918207	4.699	135258816000
0	9977213770	4.7	41279640000
0	9982495539	4.701	1677793856000
0	9987717387	4.702	473360480000
0	9992899160	4.703	1840985608000
0	9998069280	4.704	880555768000
0	10003202612	4.705	28714024000
0	10008317388	4.706	57065200000
0	10013409994	4.707	3608933648000
0	10018488466	4.708	825685632000
0	10023558501	4.709	4416626088000
0	10028633723	4.71	821306392000
0	10033669856	4.711	35576024000
0	10038713571	4.712	1261237048000
0	10043766708	4.713	6392405512000
0	10048820134	4.714	245913088000
0	10053860917	4.715	5408301432000
0	10058885719	4.716	52894184000
0	10063909033	4.717	3593117872000
0	10068936556	4.718	828412656000
0	10073913547	4.719	842702528000
0	10078913286	4.72	1893197624000
0	10083913564	4.721	3620831808000
0	10088932166	4.722	1831238952000
0	10093944020	4.723	3420372760000
0	10098951743	4.724	40653272000
0	10103924323	4.725	3600696248000
0	10108876632	4.726	1825310200000
0	10113827245	4.727	2614116432000
0	10118746501	4.728	44601936000
0	10123643774	4.729	826361544000
0	10128592101	4.73	1657216264000
0	10133497711	4.731	1818137248000
0	10138423489	4.732	3814122032000
0	10143331430	4.733	36903304000
0	10148223783	4.734	1822519560000
0	10153113430	4.735	2415173320000
0	10157998542	4.736	4598383728000
0	10162868687	4.737	4393627336000
0	10167738898	4.738	42640424000
0	10172606081	4.739	5618281824000
0	10177453172	4.74	4402064088000
0	10182268213	4.741	2110830960000
0	10187082236	4.742	1838402016000
0	10191902317	4.743	824426656000
0	10196730308	4.744	250591416000
0	10201581649	4.745	1855752544000
0	10206472905	4.746	2621831640000
0	10211340998	4.747	49336064000
0	10216197610	4.748	24886184000
0	10221024992	4.749	1851373136000
0	10225855800	4.75	4242751344000
0	10230658200	4.751	833050928000
0	10235442934	4.752	54124560000
0	10240210422	4.753	2045513584000
0	10244979674	4.754	2109382640000
0	10249749221	4.755	28325808000
0	10254502917	4.756	52682960000
0	10259289816	4.757	2076982224000
0	10264073659	4.758	2614799576000
0	10268849213	4.759	1049348832000
0	10273610860	4.76	3605921640000
0	10278380472	4.761	826096496000
0	10283185496	4.762	243967608000
0	10287985066	4.763	1826351856000
0	10292790249	4.764	833145896000
0	10297601229	4.765	822246440000
0	10302400607	4.766	2628731512000
0	10307216412	4.767	1060164904000
0	10312051328	4.768	36295712000
0	10316883252	4.769	38615376000
0	10321721176	4.77	1837050344000
0	10326571186	4.771	1898612456000
0	10331435498	4.772	110143280000
0	10336339272	4.773	1610880824000
0	10341237880	4.774	1054660632000
0	10346183308	4.775	1041554744000
0	10351176918	4.776	853401816000
0	10356189614	4.777	3608796576000
0	10361248970	4.778	4036463304000
0	10366323781	4.779	52900264000
0	10371411348	4.78	2047828856000
0	10376518925	4.781	50551192000
0	10381592281	4.782	1628245632000
0	10386650767	4.783	6195189008000
0	10391734253	4.784	1835547096000
0	10396805240	4.785	1828626872000
0	10401878313	4.786	3609034216000
0	10406966829	4.787	48749592000
0	10412003204	4.788	263703360000
0	10417000658	4.789	42868104000
0	10422012071	4.79	99279488000
0	10427018774	4.791	841694808000
0	10432036584	4.792	2045885472000
0	10437038033	4.793	1915844936000
0	10442040175	4.794	1870946976000
0	10447022763	4.795	1812477296000
0	10451926672	4.796	3605515248000
0	10456831132	4.797	54164952000
0	10461721304	4.798	1609579136000
0	10466595042	4.799	261049808000
0	10471468097	4.8	498622208000
0	10476323903	4.801	43556464000
0	10481187587	4.802	3619505584000
0	10486053779	4.803	4409391312000
0	10490938474	4.804	1836524368000
0	10495848842	4.805	1820032968000
0	10500724415	4.806	5391334664000
0	10505594717	4.807	2270082016000
0	10510447298	4.808	50530656000
0	10515311070	4.809	837522208000
0	10520151733	4.81	119793088000
0	10524995282	4.811	2041667768000
0	10529840965	4.812	63377704000
0	10534697695	4.813	29490232000
0	10539583976	4.814	101961048000
0	10544432406	4.815	64803888000
0	10549278459	4.816	3657642936000
0	10554085479	4.817	3694242544000
0	10558923918	4.818	325134656000
0	10563792873	4.819	1869422152000
0	10568687941	4.82	1038673664000
0	10573556746	4.821	55084336000
0	10578407393	4.822	2690573960000
0	10583255407	4.823	86402928000
0	10588106278	4.824	34525360000
0	10592925743	4.825	876587744000
0	10597724920	4.826	46275672000
0	10602536847	4.827	36592576000
0	10607331341	4.828	51770848000
0	10612092123	4.829	3618108048000
0	10616864553	4.83	1053821824000
0	10621654814	4.831	1819074072000
0	10626427294	4.832	44177184000
0	10631175546	4.833	33870408000
0	10635896439	4.834	251548008000
0	10640623758	4.835	30175896000
0	10645345915	4.836	812733840000
0	10650085208	4.837	1908852312000
0	10654825442	4.838	2614942000000
0	10659524999	4.839	869489168000
0	10664236001	4.84	2075348704000
0	10668944128	4.841	3902049192000
0	10673665173	4.842	66570872000
0	10678391866	4.843	839070392000
0	10683098256	4.844	71830456000
0	10687777630	4.845	1819739936000
0	10692498241	4.846	5207010176000
0	10697214838	4.847	50015032000
0	10701940149	4.848	3625124448000
0	10706639827	4.849	1806997344000
0	10711303079	4.85	3672867176000
0	10715948093	4.851	254051728000
0	10720606951	4.852	3612664208000
0	10725285102	4.853	44625480000
0	10729974194	4.854	1830721712000
0	10734663232	4.855	6073982104000
0	10739327298	4.856	43822552000
0	10743993267	4.857	40383568000
0	10748629599	4.858	1840696296000
0	10753279511	4.859	3605020992000
0	10757920498	4.86	827973920000
0	10762540087	4.861	36872344000
0	10767200897	4.862	902611304000
0	10771867417	4.863	118866264000
0	10776528309	4.864	2046323392000
0	10781197119	4.865	1838116408000
0	10785840987	4.866	26125040000
0	10790504963	4.867	1815334832000
0	10795180179	4.868	3607404024000
0	10799852928	4.869	1845120224000
0	10804515354	4.87	825915616000
0	10809168794	4.871	3612861520000
0	10813810717	4.872	831051200000
0	10818434697	4.873	84081512000
0	10823085580	4.874	49421184000
0	10827743730	4.875	2693909744000
0	10832422680	4.876	48746304000
0	10837106177	4.877	35523832000
0	10841801129	4.878	2108475776000
0	10846475822	4.879	1046026288000
0	10851158021	4.88	848751608000
0	10855856878	4.881	1832890048000
0	10860543374	4.882	103525600000
0	10865225356	4.883	102348216000
0	10869897326	4.884	2636018928000
0	10874584343	4.885	822530848000
0	10879251534	4.886	842260352000
0	10883885843	4.887	24329248000
0	10888496129	4.888	1309181816000
0	10893104056	4.889	1845236680000
0	10897731540	4.89	4424496408000
0	10902369118	4.891	858434560000
0	10906993719	4.892	1811893520000
0	10911606955	4.893	1853880552000
0	10916220957	4.894	100900288000
0	10920828575	4.895	1846594152000
0	10925409181	4.896	1868081752000
0	10930003096	4.897	833907472000
0	10934592434	4.898	264080728000
0	10939160118	4.899	25403784000
0	10943732678	4.9	2612370288000
0	10948311763	4.901	248561368000
0	10952921466	4.902	3664186048000
0	10957552848	4.903	3644024888000
0	10962166431	4.904	1818959416000
0	10966774549	4.905	1067741120000
0	10971369592	4.906	37729592000
0	10975929769	4.907	1810849016000
0	10980536722	4.908	2626032512000
0	10985136002	4.909	49652896000
0	10989727162	4.91	4426337424000
0	10994340246	4.911	5202139576000
0	10998963370	4.912	44298776000
0	11003561672	4.913	1841633416000
0	11008152499	4.914	88033312000
0	11012727409	4.915	58238352000
0	11017317234	4.916	2050687496000
0	11021917810	4.917	4437608232000
0	11026482040	4.918	3602581496000
0	11031065668	4.919	2626943568000
0	11035673666	4.92	50551120000
0	11040309095	4.921	2608599712000
0	11044913238	4.922	1634574224000
0	11049544234	4.923	2622267896000
0	11054159482	4.924	46211072000
0	11058763079	4.925	87551480000
0	11063347842	4.926	3833868504000
0	11067945609	4.927	1898764496000
0	11072541755	4.928	2613103960000
0	11077145727	4.929	1823735896000
0	11081752459	4.93	117671312000
0	11086350986	4.931	34516360000
0	11090926656	4.932	4385149520000
0	11095522936	4.933	36237472000
0	11100137441	4.934	909863368000
0	11104742619	4.935	1819382168000
0	11109336602	4.936	2407133136000
0	11113940311	4.937	4688201872000
0	11118530271	4.938	1843923024000
0	11123125433	4.939	48256176000
0	11127710692	4.94	2627243104000
0	11132303539	4.941	43883392000
0	11136904871	4.942	2479849224000
0	11141520300	4.943	2282605672000
0	11146129794	4.944	2622461680000
0	11150719908	4.945	2837277664000
0	11155327403	4.946	1814082288000
0	11159967943	4.947	841877072000
0	11164617984	4.948	1611567608000
0	11169282808	4.949	5257719480000
0	11173959875	4.95	1846573304000
0	11178627189	4.951	64957656000
0	11183312489	4.952	35698464000
0	11188015674	4.953	2611290008000
0	11192734360	4.954	489389336000
0	11197441443	4.955	3621810928000
0	11202158143	4.956	5393657752000
0	11206864829	4.957	99051272000
0	11211597064	4.958	5398069712000
0	11216342757	4.959	3596389408000
0	11221091379	4.96	260516656000
0	11225843837	4.961	42949392000
0	11230582093	4.962	2616761712000
0	11235348422	4.963	264551056000
0	11240092783	4.964	1849982840000
0	11244846383	4.965	836875928000
0	11249587640	4.966	4844651928000
0	11254355179	4.967	3607950832000
0	11259073928	4.968	3616725224000
0	11263786316	4.969	29757640000
0	11268499764	4.97	1630362408000
0	11273208616	4.971	1836286504000
0	11277933751	4.972	820112248000
0	11282668818	4.973	3613654688000
0	11287389129	4.974	2610982920000
0	11292108131	4.975	3659002328000
0	11296812998	4.976	3409573352000
0	11301539036	4.977	35405616000
0	11306286528	4.978	289324312000
0	11311036397	4.979	32616144000
0	11315798043	4.98	111442736000
0	11320596905	4.981	1827707168000
0	11325417473	4.982	50140432000
0	11330277890	4.983	1841888080000
0	11335165140	4.984	64386560000
0	11340026458	4.985	1831630128000
0	11344925814	4.986	51799776000
0	11349820019	4.987	34764576000
0	11354680904	4.988	2615000600000
0	11359527340	4.989	2636209616000
0	11364351651	4.99	2637075200000
0	11369210303	4.991	1884436176000
0	11374053379	4.992	1042083816000
0	11378914365	4.993	1835434040000
0	11383758433	4.994	257887648000
0	11388543998	4.995	51316152000
0	11393299104	4.996	1819072312000
0	11398029550	4.997	852899152000
0	11402747683	4.998	47876744000
0	11407458518	4.999	49155664000
0	11412143895	5	28007960000
0	11416836425	5.001	1830472176000
0	11421498915	5.002	833488040000
0	11426135800	5.003	2648165984000
0	11430735500	5.004	3854205424000
0	11435324003	5.005	41961720000
0	11439912368	5.006	39357064000
0	11444505909	5.007	3591284536000
0	11449102002	5.008	6193705968000
0	11453705576	5.009	2056204024000
0	11458334719	5.01	40014632000
0	11462964321	5.011	58408808000
0	11467615504	5.012	2650091936000
0	11472268201	5.013	2057812320000
0	11476885869	5.014	58001936000
0	11481496874	5.015	32539864000
0	11486118633	5.016	882735544000
0	11490727640	5.017	489558608000
0	11495347020	5.018	60925120000
0	11499981915	5.019	5414256384000
0	11504628672	5.02	105673848000
0	11509269315	5.021	900521008000
0	11513906936	5.022	45979928000
0	11518526861	5.023	1823076288000
0	11523154834	5.024	268598528000
0	11527812100	5.025	847516536000
0	11532462412	5.026	34906560000
0	11537081464	5.027	45543904000
0	11541704200	5.028	1819558280000
0	11546325887	5.029	33851232000
0	11550903996	5.03	30165680000
0	11555479687	5.031	34949528000
0	11560028962	5.032	921458176000
0	11564593354	5.033	254087912000
0	11569139948	5.034	2280769848000
0	11573672928	5.035	50719120000
0	11578210770	5.036	31810656000
0	11582709264	5.037	33468296000
0	11587218081	5.038	4419593776000
0	11591749549	5.039	84827680000
0	11596291724	5.04	3402102528000
0	11600816653	5.041	2036368672000
0	11605335225	5.042	60475408000
0	11609865269	5.043	2610272744000
0	11614399601	5.044	863015624000
0	11618933175	5.045	260088336000
0	11623475490	5.046	1050541168000
0	11628017151	5.047	825866016000
0	11632573145	5.048	2628583400000
0	11637101428	5.049	5200941720000
0	11641637361	5.05	12477472000
0	11646186870	5.051	857320552000
0	11650752974	5.052	39367760000
0	11655330731	5.053	241946208000
0	11659928847	5.054	49041360000
0	11664523544	5.055	2048703064000
0	11669149957	5.056	3840027880000
0	11673783744	5.057	6207755704000
0	11678436891	5.058	1851933424000
0	11683101333	5.059	5619989568000
0	11687806999	5.06	851393360000
0	11692518083	5.061	41822952000
0	11697223406	5.062	2624545880000
0	11701963273	5.063	50385016000
0	11706690449	5.064	58074472000
0	11711397732	5.065	52866032000
0	11716089588	5.066	254722184000
0	11720757331	5.067	25289424000
0	11725430183	5.068	1889674824000
0	11730070265	5.069	1822947952000
0	11734743340	5.07	113447672000
0	11739388980	5.071	2604574712000
0	11743982678	5.072	895689912000
0	11748576937	5.073	61240320000
0	11753172051	5.074	56499496000
0	11757780113	5.075	4455527256000
0	11762349494	5.076	2610053704000
0	11766895194	5.077	891227520000
0	11771439761	5.078	2649624280000
0	11775955361	5.079	62657768000
0	11780491029	5.08	2614211944000
0	11785021409	5.081	3659625024000
0	11789532427	5.082	834824736000
0	11794063932	5.083	821401560000
0	11798590705	5.084	1843607816000
0	11803107135	5.085	62459384000
0	11807615398	5.086	36278256000
0	11812130121	5.087	153087240000
0	11816653633	5.088	1035904424000
0	11821207201	5.089	1079327248000
0	11825743341	5.09	1627837360000
0	11830275230	5.091	2039924976000
0	11834845624	5.092	1832116936000
0	11839390774	5.093	42896944000
0	11843911108	5.094	262932464000
0	11848431685	5.095	1825572512000
0	11852946891	5.096	1641937328000
0	11857464072	5.097	821923336000
0	11861980810	5.098	29058456000
0	11866493149	5.099	829201040000
0	11870999989	5.1	852852696000
0	11875521964	5.101	3686621680000
0	11880040568	5.102	4047675664000
0	11884570073	5.103	39227912000
0	11889074973	5.104	4391721688000
0	11893605827	5.105	1827077640000
0	11898130903	5.106	265393992000
0	11902681177	5.107	3470507480000
0	11907224503	5.108	1817665744000
0	11911773845	5.109	76106568000
0	11916318332	5.11	100780024000
0	11920830928	5.111	32300488000
0	11925373606	5.112	2043381936000
0	11929933891	5.113	58065560000
0	11934506775	5.114	3844547632000
0	11939104830	5.115	3608657784000
0	11943730875	5.116	1312090208000
0	11948364305	5.117	3608356768000
0	11953012377	5.118	1810597376000
0	11957633395	5.119	1828865984000
0	11962222523	5.12	96404120000
0	11966814865	5.121	859970560000
0	11971402586	5.122	7244460752000
0	11975984476	5.123	831830384000
0	11980578129	5.124	2604598608000
0	11985159152	5.125	5224221904000
0	11989720185	5.126	276561360000
0	11994296185	5.127	3607993168000
0	11998871040	5.128	2073159736000
0	12003457728	5.129	5392709176000
0	12008074591	5.13	1051454088000
0	12012692220	5.131	1817465208000
0	12017309868	5.132	48664832000
0	12021962104	5.133	70312616000
0	12026633150	5.134	3922571424000
0	12031301333	5.135	834207952000
0	12035964370	5.136	1823396904000
0	12040655691	5.137	2031161032000
0	12045353960	5.138	64223112000
0	12050075240	5.139	3670848584000
0	12054771527	5.14	1626448200000
0	12059459711	5.141	3612920488000
0	12064157247	5.142	53771232000
0	12068868676	5.143	1820118392000
0	12073600016	5.144	42814936000
0	12078338668	5.145	1829042296000
0	12083104673	5.146	3607211744000
0	12087876303	5.147	3643305664000
0	12092618633	5.148	40660904000
0	12097390669	5.149	91752808000
0	12102138002	5.15	816317768000
0	12106879993	5.151	1828519144000
0	12111582920	5.152	827991840000
0	12116316502	5.153	822371776000
0	12121041765	5.154	28404232000
0	12125753513	5.155	1816135304000
0	12130446069	5.156	1822840824000
0	12135064372	5.157	1055064272000
0	12139694764	5.158	5627533168000
0	12144297361	5.159	55379568000
0	12148884405	5.16	1861478712000
0	12153488232	5.161	263572096000
0	12158080315	5.162	88249232000
0	12162654691	5.163	1833637512000
0	12167244359	5.164	1880752008000
0	12171870301	5.165	1817730064000
0	12176484835	5.166	824752624000
0	12181134233	5.167	1650316584000
0	12185805171	5.168	48593704000
0	12190488508	5.169	2048468472000
0	12195155204	5.17	69254352000
0	12199817217	5.171	5603423320000
0	12204470133	5.172	1833291496000
0	12209115096	5.173	275952736000
0	12213755904	5.174	38011896000
0	12218381778	5.175	39385840000
0	12222992383	5.176	42691312000
0	12227607064	5.177	39460520000
0	12232229600	5.178	45085264000
0	12236844949	5.179	1611836848000
0	12241487999	5.18	895902184000
0	12246134562	5.181	44103024000
0	12250789799	5.182	4386998440000
0	12255424436	5.183	3404848144000
0	12260074827	5.184	270854344000
0	12264722137	5.185	31752424000
0	12269364801	5.186	1814426032000
0	12273967711	5.187	102163248000
0	12278562436	5.188	6202649456000
0	12283163088	5.189	3627156920000
0	12287784403	5.19	106077896000
0	12292406621	5.191	4400175344000
0	12297037187	5.192	3418484144000
0	12301681263	5.193	822954832000
0	12306335597	5.194	2627754480000
0	12311001736	5.195	1618505744000
0	12315679862	5.196	71683184000
0	12320351669	5.197	34534776000
0	12325030355	5.198	1895590928000
0	12329744251	5.199	3408426712000
0	12334446118	5.2	1631856024000
0	12339179494	5.201	4404438016000
0	12343945639	5.202	2600245680000
0	12348721693	5.203	1860065232000
0	12353504572	5.204	120872880000
0	12358297558	5.205	1887246480000
0	12363124149	5.206	1847197072000
0	12367971312	5.207	840053328000
0	12372829819	5.208	1855941432000
0	12377661052	5.209	2610851448000
0	12382458849	5.21	1835811560000
0	12387206360	5.211	3633719520000
0	12391944304	5.212	41057600000
0	12396670273	5.213	837132768000
0	12401429876	5.214	3615501368000
0	12406204067	5.215	66539760000
0	12410957574	5.216	1039262976000
0	12415717240	5.217	824589168000
0	12420461113	5.218	6197777656000
0	12425220098	5.219	68893704000
0	12429955353	5.22	117818408000
0	12434700555	5.221	41720184000
0	12439436635	5.222	41938648000
0	12444117293	5.223	2829305320000
0	12448799000	5.224	1815903976000
0	12453496872	5.225	1654312024000
0	12458181404	5.226	58256592000
0	12462881477	5.227	54084600000
0	12467587675	5.228	56497072000
0	12472274148	5.229	1835394112000
0	12476957400	5.23	3615321216000
0	12481646453	5.231	2611860552000
0	12486329317	5.232	1843304576000
0	12491004855	5.233	46826128000
0	12495702296	5.234	251576144000
0	12500435545	5.235	2649780920000
0	12505190011	5.236	2642066136000
0	12509944475	5.237	43275744000
0	12514710429	5.238	1826152120000
0	12519459225	5.239	1832828088000
0	12524232603	5.24	120555440000
0	12529019503	5.241	258723760000
0	12533838446	5.242	2616341176000
0	12538690022	5.243	1822216120000
0	12543520410	5.244	1833821880000
0	12548361247	5.245	1846654984000
0	12553193044	5.246	3475472088000
0	12557988156	5.247	2613993352000
0	12562763273	5.248	71526344000
0	12567563919	5.249	851363736000
0	12572338708	5.25	2033887056000
0	12577089975	5.251	1833855736000
0	12581843929	5.252	1835769680000
0	12586639518	5.253	268168528000
0	12591402101	5.254	1833007968000
0	12596152201	5.255	2043896576000
0	12600899294	5.256	3649520032000
0	12605639330	5.257	2421045160000
0	12610345802	5.258	30354784000
0	12615035396	5.259	1816376104000
0	12619710752	5.26	46294288000
0	12624374944	5.261	821605800000
0	12629025689	5.262	857099168000
0	12633692893	5.263	3637340296000
0	12638376993	5.264	3611599248000
0	12643077364	5.265	4267779472000
0	12647752361	5.266	5621864496000
0	12652425271	5.267	261574952000
0	12657089734	5.268	1619086144000
0	12661766140	5.269	1835876168000
0	12666450207	5.27	2598458072000
0	12671152625	5.271	2026334792000
0	12675863884	5.272	54567760000
0	12680569943	5.273	1849730192000
0	12685314630	5.274	2620107392000
0	12690072315	5.275	4412639568000
0	12694850710	5.276	2046634464000
0	12699644258	5.277	255700848000
0	12704448205	5.278	112150864000
0	12709246252	5.279	3655700800000
0	12714044314	5.28	115399104000
0	12718864386	5.281	35515096000
0	12723668171	5.282	1809552856000
0	12728486843	5.283	7198085424000
0	12733293593	5.284	1837322920000
0	12738162365	5.285	2632478920000
0	12743063315	5.286	828644256000
0	12747929037	5.287	1823158856000
0	12752789677	5.288	1033611536000
0	12757681711	5.289	3852943784000
0	12762597316	5.29	1883830232000
0	12767545399	5.291	1820175504000
0	12772504681	5.292	1816525840000
0	12777466180	5.293	2637393384000
0	12782437186	5.294	3604054952000
0	12787471059	5.295	2115934624000
0	12792489850	5.296	1830082176000
0	12797576812	5.297	2909593832000
0	12802709836	5.298	846975352000
0	12807853171	5.299	56381968000
0	12813000710	5.3	2062902984000
0	12818111913	5.301	1841317176000
0	12823260188	5.302	835955960000
0	12828411720	5.303	1873112080000
0	12833565018	5.304	830114176000
0	12838716277	5.305	2076163592000
0	12843860450	5.306	74334832000
0	12849013429	5.307	38784608000
0	12854186545	5.308	5455805816000
0	12859371493	5.309	48039800000
0	12864618389	5.31	79135112000
0	12869888170	5.311	1828447120000
0	12875208760	5.312	3823056960000
0	12880609060	5.313	102087496000
0	12886077542	5.314	42605968000
0	12891591765	5.315	111592992000
0	12897133639	5.316	45508800000
0	12902678754	5.317	4399193184000
0	12908200681	5.318	1829542152000
0	12913698205	5.319	2845610592000
0	12919233165	5.32	3621684008000
0	12924798193	5.321	1825945376000
0	12930368230	5.322	3618143784000
0	12935931518	5.323	1826104744000
[...]
4	32717756731	9.417	4845616048000
4	32722894885	9.418	2681811360000
4	32728016177	9.419	1810656672000
4	32733132220	9.42	52959960000
4	32738275491	9.421	1623819408000
4	32743442037	9.422	2051481192000
4	32748621729	9.423	6185559248000
4	32753786956	9.424	1890633992000
4	32758964792	9.425	2611662072000
4	32764171531	9.426	881036352000
4	32769358683	9.427	273618608000
4	32774515232	9.428	889563768000
4	32779645386	9.429	2034950048000
4	32784747116	9.43	2621545456000
4	32789879087	9.431	3615014880000
4	32794962588	9.432	41215536000
4	32800068618	9.433	40854456000
4	32805191684	9.434	133881472000
4	32810297887	9.435	1885778952000
4	32815372694	9.436	2829815776000
4	32820433575	9.437	1831058168000
4	32825505627	9.438	40580272000
4	32830609029	9.439	1838028296000
4	32835725055	9.44	44245920000
4	32840807897	9.441	49133568000
4	32845861453	9.442	35923240000
4	32850897470	9.443	41548584000
4	32855946184	9.444	1814271848000
4	32860982239	9.445	1814715760000
4	32866002270	9.446	1833455328000
4	32871049876	9.447	3398502752000
4	32876149431	9.448	4621376280000
4	32881311726	9.449	2611350128000
4	32886512840	9.45	46667560000
4	32891718337	9.451	28267728000
4	32896920486	9.452	3626955328000
4	32902119416	9.453	4180952280000
4	32907303904	9.454	6211642656000
4	32912510138	9.455	4405190880000
4	32917713319	9.456	859706576000
4	32922898728	9.457	261138688000
4	32928075984	9.458	1855726568000
4	32933211178	9.459	36315856000
4	32938339144	9.46	853936440000
4	32943430656	9.461	2042692360000
4	32948484356	9.462	3649171048000
4	32953531449	9.463	40780336000
4	32958611112	9.464	3617579936000
4	32963697632	9.465	37861664000
4	32968790561	9.466	1837143808000
4	32973869040	9.467	1827223456000
4	32978967785	9.468	833037280000
4	32984026175	9.469	34867920000
4	32989037064	9.47	1837938536000
4	32994109876	9.471	1854716848000
4	32999189781	9.472	329779576000
4	33004299734	9.473	1845757016000
4	33009348601	9.474	40689400000
4	33014376084	9.475	4394589128000
4	33019392539	9.476	3632008960000
4	33024407984	9.477	5446096056000
4	33029405986	9.478	1828707024000
4	33034372928	9.479	59878920000
4	33039332328	9.48	77932496000
4	33044320998	9.481	1818783984000
4	33049299946	9.482	1898887816000
4	33054270803	9.483	61041688000
4	33059224618	9.484	1821539152000
4	33064180737	9.485	43788824000
4	33069170655	9.486	5607634648000
4	33074138397	9.487	40493080000
4	33079102021	9.488	1836065776000
4	33084068839	9.489	6200733592000
4	33089035890	9.49	852854296000
4	33093961098	9.491	1060561712000
4	33098885584	9.492	248623288000
4	33103783369	9.493	2844966368000
4	33108651935	9.494	2049456944000
4	33113515188	9.495	1855463928000
4	33118354237	9.496	2111092768000
4	33123199405	9.497	48221800000
4	33128023029	9.498	82551296000
4	33132852398	9.499	49804064000
4	33137657973	9.5	1825179536000
4	33142463422	9.501	1825711024000
4	33147242246	9.502	1843327936000
4	33151998466	9.503	1650760112000
4	33156782234	9.504	46959568000
4	33161558919	9.505	826321544000
4	33166347025	9.506	833388128000
4	33171112390	9.507	261174256000
4	33175880121	9.508	1878514984000
4	33180649165	9.509	40329616000
4	33185446575	9.51	252862016000
4	33190250932	9.511	36841888000
4	33195055470	9.512	2603571168000
4	33199877236	9.513	2614246088000
4	33204668866	9.514	56766936000
4	33209444926	9.515	62069472000
4	33214154307	9.516	838063104000
4	33218852038	9.517	1858085576000
4	33223559597	9.518	1639233336000
4	33228265447	9.519	65252408000
4	33232941761	9.52	831456136000
4	33237612673	9.521	33410792000
4	33242288445	9.522	825355872000
4	33246938676	9.523	835685992000
4	33251598415	9.524	848507448000
4	33256276480	9.525	2868108944000
4	33260947791	9.526	30984392000
4	33265626246	9.527	1841634528000
4	33270307603	9.528	4408010872000
4	33274968331	9.529	48328320000
4	33279643779	9.53	821118200000
4	33284310561	9.531	1040352000000
4	33288985660	9.532	71850800000
4	33293663265	9.533	94941240000
4	33298348582	9.534	54017320000
4	33303047185	9.535	1818233824000
4	33307765548	9.536	68710696000
4	33312470390	9.537	34917040000
4	33317177541	9.538	2616435232000
4	33321873190	9.539	49711344000
4	33326600511	9.54	3696345904000
4	33331306069	9.541	836524632000
4	33336012317	9.542	3630253296000
4	33340729032	9.543	1873223496000
4	33345463771	9.544	2604062192000
4	33350199072	9.545	1884044704000
4	33354962795	9.546	863597656000
4	33359726939	9.547	838353512000
4	33364504028	9.548	60978336000
4	33369280341	9.549	828200840000
4	33374058906	9.55	43053008000
4	33378832568	9.551	3471208408000
4	33383612633	9.552	1644868640000
4	33388412184	9.553	4424676568000
4	33393226312	9.554	3603536368000
4	33398071947	9.555	2868953040000
4	33402933464	9.556	3605214912000
4	33407793543	9.557	60155376000
4	33412675520	9.558	902714720000
4	33417568870	9.559	2613826288000
4	33422458085	9.56	2047190888000
4	33427354156	9.561	5618362768000
4	33432233148	9.562	36510968000
4	33437098129	9.563	1831828288000
4	33441956508	9.564	1269454072000
4	33446818186	9.565	2605036232000
4	33451689161	9.566	168680752000
4	33456532809	9.567	1836216432000
4	33461398516	9.568	845454584000
4	33466222923	9.569	861795992000
4	33471072169	9.57	1838677896000
4	33475912752	9.571	2055913304000
4	33480752211	9.572	325058024000
4	33485574733	9.573	874137128000
4	33490416516	9.574	4400861616000
4	33495230082	9.575	243961824000
4	33500012849	9.576	3611833296000
4	33504798479	9.577	2042214808000
4	33509587103	9.578	2099173360000
4	33514385828	9.579	3394544472000
4	33519208687	9.58	909152800000
4	33524034975	9.581	1104173096000
4	33528863295	9.582	54479584000
4	33533680726	9.583	271646688000
4	33538498631	9.584	2047371864000
4	33543368145	9.585	55780912000
4	33548238661	9.586	256721272000
4	33553129240	9.587	49463320000
4	33558012535	9.588	2863568744000
4	33562918708	9.589	1054435632000
4	33567830531	9.59	50012472000
4	33572733364	9.591	62495936000
4	33577633606	9.592	1827930976000
4	33582536390	9.593	275887504000
4	33587447304	9.594	840464024000
4	33592386767	9.595	1877646272000
4	33597348495	9.596	3634951032000
4	33602311083	9.597	2827207120000
4	33607295617	9.598	1870338656000
4	33612269960	9.599	1612682328000
4	33617232302	9.6	830475224000
4	33622170050	9.601	281682040000
4	33627065883	9.602	1070841808000
4	33631913283	9.603	829733920000
4	33636731714	9.604	33659080000
4	33641533655	9.605	101864640000
4	33646307583	9.606	98411264000
4	33651076333	9.607	2048656992000
4	33655823001	9.608	843411424000
4	33660594838	9.609	837716856000
4	33665347671	9.61	2627403296000
4	33670102847	9.611	38498872000
4	33674868760	9.612	4433031736000
4	33679650132	9.613	2056710464000
4	33684416253	9.614	36622072000
4	33689211361	9.615	5207077600000
4	33694028008	9.616	3612833064000
4	33698836273	9.617	53443936000
4	33703655155	9.618	35886160000
4	33708479791	9.619	44307392000
4	33713305140	9.62	1839348856000
4	33718136837	9.621	28409840000
4	33722964479	9.622	1806049464000
4	33727773623	9.623	57629832000
4	33732638699	9.624	1171545720000
4	33737517731	9.625	51641168000
4	33742430468	9.626	83424624000
4	33747346812	9.627	2828972688000
4	33752259036	9.628	108672480000
4	33757184435	9.629	2622221056000
4	33762119115	9.63	2414143160000
4	33767079798	9.631	1829791440000
4	33772055736	9.632	2607268736000
4	33777053776	9.633	24763992000
4	33782078368	9.634	888627664000
4	33787093891	9.635	51792008000
4	33792113037	9.636	25728744000
4	33797142169	9.637	899690408000
4	33802183018	9.638	844827120000
4	33807234680	9.639	34651688000
4	33812289627	9.64	56058936000
4	33817302514	9.641	38398024000
4	33822317073	9.642	1814057192000
4	33827309863	9.643	51933024000
4	33832271436	9.644	3637385472000
4	33837211422	9.645	1881311960000
4	33842151921	9.646	847777632000
4	33847081192	9.647	2606208048000
4	33852004318	9.648	3637277608000
4	33856902577	9.649	2613243584000
4	33861811968	9.65	850159408000
4	33866752114	9.651	3397365928000
4	33871699313	9.652	2625640232000
4	33876665670	9.653	841243560000
4	33881645009	9.654	1039673504000
4	33886624806	9.655	3699666752000
4	33891611394	9.656	2622644256000
4	33896581632	9.657	257657152000
4	33901526292	9.658	2817374160000
4	33906440653	9.659	62046520000
4	33911386149	9.66	1853581808000
4	33916304017	9.661	1851858680000
4	33921196584	9.662	1816036768000
4	33926075584	9.663	2608746480000
4	33930934108	9.664	27702336000
4	33935751248	9.665	5419357688000
4	33940560691	9.666	1823961248000
4	33945395306	9.667	84523616000
4	33950256826	9.668	45449480000
4	33955103264	9.669	5607071688000
4	33959936432	9.67	2051262864000
4	33964747418	9.671	819730024000
4	33969580059	9.672	3631263440000
4	33974416064	9.673	4392974400000
4	33979227561	9.674	2825343144000
4	33984047895	9.675	1817105344000
4	33988896806	9.676	826342960000
4	33993746452	9.677	48918424000
4	33998583150	9.678	46018368000
4	34003416648	9.679	3840233424000
4	34008243788	9.68	5390254904000
4	34013091558	9.681	5397886208000
4	34017964104	9.682	4399367888000
4	34022848638	9.683	90852832000
4	34027731895	9.684	53489152000
4	34032626318	9.685	849076160000
4	34037559982	9.686	1845368752000
4	34042503702	9.687	29354024000
4	34047439133	9.688	1052560504000
4	34052388915	9.689	1821414576000
4	34057373809	9.69	1823063376000
4	34062348743	9.691	830634368000
4	34067321370	9.692	1289385144000
4	34072288786	9.693	45018488000
4	34077268398	9.694	3675071992000
4	34082262236	9.695	1813222392000
4	34087296807	9.696	2034728720000
4	34092376885	9.697	1821067528000
4	34097434856	9.698	3630576808000
4	34102448389	9.699	3606398096000
4	34107458104	9.7	266049840000
4	34112440859	9.701	4389789304000
4	34117393742	9.702	1854889128000
4	34122349430	9.703	3625244000000
4	34127277515	9.704	3474108760000
4	34132225835	9.705	37989640000
4	34137170765	9.706	1855539200000
4	34142144211	9.707	2025397280000
4	34147092089	9.708	30853056000
4	34152065556	9.709	890932400000
4	34157047615	9.71	3626961744000
4	34162060156	9.711	2858222440000
4	34167067989	9.712	62286184000
4	34172063244	9.713	5403590984000
4	34177019995	9.714	38370992000
4	34181990649	9.715	564417960000
4	34186953394	9.716	22665696000
4	34191947910	9.717	1855913120000
4	34196931697	9.718	1846285312000
4	34201907679	9.719	2622310920000
4	34206932831	9.72	1816393904000
4	34211977827	9.721	835079472000
4	34216995323	9.722	2421414392000
4	34222039950	9.723	2059290648000
4	34227084419	9.724	31713088000
4	34232183877	9.725	30538360000
4	34237268430	9.726	832589488000
4	34242344251	9.727	246243792000
4	34247441294	9.728	2826544816000
4	34252530440	9.729	844715896000
4	34257647288	9.73	58422424000
4	34262765214	9.731	39637856000
4	34267888312	9.732	263633488000
4	34273008229	9.733	45912304000
4	34278117257	9.734	820480632000
4	34283211898	9.735	830982400000
4	34288290061	9.736	2066114168000
4	34293351489	9.737	1822462032000
4	34298437261	9.738	1834432360000
4	34303491323	9.739	2064614408000
4	34308522191	9.74	1816881920000
4	34313545689	9.741	2603059528000
4	34318550297	9.742	2033594864000
4	34323565747	9.743	469301808000
4	34328587295	9.744	3642454344000
4	34333634807	9.745	5389665856000
4	34338672534	9.746	1608584488000
4	34343743881	9.747	39595752000
4	34348826228	9.748	844110584000
4	34353896196	9.749	1099683944000
4	34358961987	9.75	2604835256000
4	34364032774	9.751	5405208768000
4	34369071598	9.752	31029032000
4	34374101582	9.753	1627658944000
4	34379128222	9.754	2610612832000
4	34384113913	9.755	3628947040000
4	34389087144	9.756	32757152000
4	34394079509	9.757	2636733592000
4	34399070393	9.758	56243424000
4	34404040681	9.759	40736072000
4	34408986136	9.76	1896572184000
4	34413955557	9.761	820278568000
4	34418967219	9.762	46273808000
4	34423975554	9.763	2608529592000
4	34428970672	9.764	28455192000
4	34433962250	9.765	43038024000
4	34438929962	9.766	39417688000
4	34443887274	9.767	36437560000
4	34448847614	9.768	1830535584000
4	34453794823	9.769	2622298008000
4	34458721465	9.77	3860348752000
4	34463615611	9.771	2052452432000
4	34468484003	9.772	5972542856000
4	34473327831	9.773	39407624000
4	34478160420	9.774	39610592000
4	34482994881	9.775	2051395632000
4	34487795705	9.776	1069608552000
4	34492591534	9.777	1101751760000
4	34497389787	9.778	1599889400000
4	34502171906	9.779	3607698472000
4	34506949987	9.78	271401056000
4	34511710904	9.781	3631736624000
4	34516457421	9.782	2679116040000
4	34521180908	9.783	43283320000
4	34525883070	9.784	1617689744000
4	34530621427	9.785	39014224000
4	34535328603	9.786	53969680000
4	34540032231	9.787	4395354464000
4	34544708434	9.788	1878941064000
4	34549344592	9.789	1820211672000
4	34554008028	9.79	846802288000
4	34558698444	9.791	1881435472000
4	34563386724	9.792	19610952000
4	34568059049	9.793	274418872000
4	34572731637	9.794	128206920000
4	34577392138	9.795	41814896000
4	34582066927	9.796	4414206384000
4	34586742176	9.797	838444096000
4	34591422515	9.798	1823057560000
4	34596127443	9.799	821746832000
4	34600850974	9.8	1608492840000
4	34605597495	9.801	1894020296000
4	34610360082	9.802	826326248000
4	34615153034	9.803	42271464000
4	34619961512	9.804	2849770904000
4	34624825027	9.805	4412200744000
4	34629724137	9.806	1832131752000
4	34634628030	9.807	885822960000
4	34639501919	9.808	1814203552000
4	34644375982	9.809	1885306024000
4	34649262032	9.81	5445803520000
4	34654139905	9.811	32916560000
4	34659001573	9.812	62999344000
4	34663845808	9.813	1614945120000
4	34668732778	9.814	4396184464000
4	34673657814	9.815	3619071888000
4	34678625284	9.816	5198120184000
4	34683613507	9.817	68414440000
4	34688608162	9.818	2601666704000
4	34693636195	9.819	2109163184000
4	34698684468	9.82	53291320000
4	34703738025	9.821	88315688000
4	34708784530	9.822	1826679944000
4	34713817560	9.823	103127152000
4	34718860716	9.824	1842344472000
4	34723882333	9.825	3617707128000
4	34728908134	9.826	1822201992000
4	34733943390	9.827	817686400000
4	34738994440	9.828	3888955336000
4	34744050122	9.829	38865256000
4	34749099163	9.83	3839439192000
4	34754137627	9.831	1059278688000
4	34759220249	9.832	3622187248000
4	34764298844	9.833	2610017776000
4	34769370880	9.834	2110235344000
4	34774448276	9.835	3633232744000
4	34779582050	9.836	1825534256000
4	34784698321	9.837	1106460744000
4	34789871578	9.838	1846356632000
4	34795086416	9.839	1681247672000
4	34800327701	9.84	50720512000
4	34805549891	9.841	3842704040000
4	34810744009	9.842	1872374856000
4	34815873161	9.843	2675084872000
4	34820953006	9.844	2870410520000
4	34826018649	9.845	835520240000
4	34831060341	9.846	1828575520000
4	34836069844	9.847	2264636824000
4	34841092259	9.848	2847077936000
4	34846116110	9.849	833148904000
4	34851121632	9.85	1822646072000
4	34856138608	9.851	2097383704000
4	34861163025	9.852	822041008000
4	34866195239	9.853	1849121936000
4	34871212178	9.854	1040872632000
4	34876190741	9.855	258146504000
4	34881162001	9.856	1676608632000
4	34886088648	9.857	832637888000
4	34890994072	9.858	1830117600000
4	34895926362	9.859	61630208000
4	34900861271	9.86	1896660800000
4	34905799642	9.861	1900382016000
4	34910743205	9.862	1822903392000
4	34915670339	9.863	3413230400000
4	34920594154	9.864	1837566672000
4	34925509654	9.865	1607928392000
4	34930419383	9.866	251773784000
4	34935341808	9.867	69912496000
4	34940255253	9.868	33243296000
4	34945170507	9.869	56317232000
4	34950094974	9.87	2830028680000
4	34954998469	9.871	49008168000
4	34959886278	9.872	849030920000
4	34964754005	9.873	36619400000
4	34969645375	9.874	471265776000
4	34974527171	9.875	37745296000
4	34979374459	9.876	282466880000
4	34984188390	9.877	3672549976000
4	34989002042	9.878	77675208000
4	34993821726	9.879	832876592000
4	34998632187	9.88	3619052184000
4	35003442876	9.881	3113288072000
4	35008267943	9.882	809574120000
4	35013088512	9.883	4468748496000
4	35017961417	9.884	830093680000
4	35022885872	9.885	52626352000
4	35027811889	9.886	3617741072000
4	35032736075	9.887	2043336632000
4	35037686880	9.888	844910584000
4	35042667358	9.889	4392111440000
4	35047622197	9.89	44050104000
4	35052585064	9.891	37624128000
4	35057563550	9.892	28778264000
4	35062544929	9.893	1046311424000
4	35067537683	9.894	1830309160000
4	35072560422	9.895	2630244624000
4	35077595331	9.896	1838413608000
4	35082604325	9.897	2258806624000
4	35087619991	9.898	831886744000
4	35092645786	9.899	1839426896000
4	35097709897	9.9	56614328000
4	35102780783	9.901	2676502048000
4	35107848389	9.902	2824663736000
4	35112969342	9.903	1832278320000
4	35118088679	9.904	1055170544000
4	35123187321	9.905	3637500080000
4	35128327282	9.906	835483456000
4	35133490177	9.907	4655293024000
4	35138676527	9.908	71266992000
4	35143838355	9.909	277170808000
4	35148982875	9.91	1819490544000
4	35154100772	9.911	40980760000
4	35159218013	9.912	1844628000000
4	35164320813	9.913	1061982184000
4	35169424931	9.914	820035016000
4	35174533465	9.915	54476304000
4	35179653372	9.916	37022312000
4	35184794047	9.917	3642244568000
4	35189949101	9.918	824135024000
4	35195069217	9.919	1829370616000
4	35200193985	9.92	1828598880000
4	35205339677	9.921	48259048000
4	35210462688	9.922	830782400000
4	35215576521	9.923	67556320000
4	35220706002	9.924	31157912000
4	35225830120	9.925	43039568000
4	35230934918	9.926	3593470480000
4	35236039326	9.927	837572216000
4	35241150115	9.928	42493816000
4	35246280789	9.929	35172344000
4	35251410185	9.93	31312704000
4	35256544856	9.931	1820499480000
4	35261665474	9.932	1839422048000
4	35266797569	9.933	3688618512000
4	35271940123	9.934	2258850480000
4	35277083006	9.935	2765732576000
4	35282219432	9.936	1846695024000
4	35287416970	9.937	1883613528000
4	35292628039	9.938	1878937176000
4	35297848224	9.939	6193826888000
4	35303114983	9.94	2630919440000
4	35308403707	9.941	6418177360000
4	35313709021	9.942	173594784000
4	35319003420	9.943	1829316464000
4	35324283316	9.944	1825159664000
4	35329570641	9.945	2641585032000
4	35334852403	9.946	63274736000
4	35340070802	9.947	533652376000
4	35345297603	9.948	50607416000
4	35350565831	9.949	54671672000
4	35355824323	9.95	1811332680000
4	35361011756	9.951	28551816000
4	35366189430	9.952	1818438480000
4	35371326941	9.953	3608806792000
4	35376424138	9.954	827389768000
4	35381463874	9.955	1830490936000
4	35386475370	9.956	1832703688000
4	35391497232	9.957	829063208000
4	35396446288	9.958	59606136000
4	35401382785	9.959	835344696000
4	35406283775	9.96	130762872000
4	35411173489	9.961	1881026256000
4	35416056626	9.962	48141576000
4	35420921046	9.963	807680968000
4	35425755759	9.964	864086512000
4	35430566554	9.965	3670807024000
4	35435388258	9.966	827495464000
4	35440218056	9.967	55658488000
4	35445056708	9.968	1636550368000
4	35449912309	9.969	3819105464000
4	35454756755	9.97	1827132928000
4	35459629081	9.971	1812513640000
4	35464516033	9.972	2831412152000
4	35469420024	9.973	1814331992000
4	35474314337	9.974	2628228096000
4	35479198256	9.975	1824169680000
4	35484087891	9.976	1838005232000
4	35488954339	9.977	33709104000
4	35493851516	9.978	3821805032000
4	35498762638	9.979	2680113624000
4	35503650894	9.98	268347352000
4	35508536328	9.981	3623000304000
4	35513426994	9.982	2647563552000
4	35518322053	9.983	1845272664000
4	35523193036	9.984	3608827440000
4	35528079538	9.985	2610586544000
4	35532975307	9.986	55520928000
4	35537877213	9.987	492661760000
4	35542755043	9.988	1873023536000
4	35547663829	9.989	264226640000
4	35552564940	9.99	1843309408000
4	35557446647	9.991	105583640000
4	35562313798	9.992	1832651288000
4	35567166964	9.993	1821484440000
4	35572017572	9.994	2611339800000
4	35576863093	9.995	50164384000
4	35581700197	9.996	2031609456000
4	35586505244	9.997	833358712000
4	35591316203	9.998	3612377232000
4	35596131630	9.999	40008808000
4	35600992292	10	2640833656000

