version 2
run General-0-20221112-09:32:35-16068
attr configname General
attr datetime 20221112-09:32:35
attr experiment General
attr inifile omnetpp.ini
attr iterationvars ""
attr iterationvarsf ""
attr measurement ""
attr network Network
attr processid 16068
attr repetition 0
attr replication #0
attr resultdir results
attr runnumber 0
attr seedset 0
param Network.NumOfToRs 5
param Network.NumOfAggregation 3
param Network.rack[*].number_of_hosts 10000
param Network.linedelay 0.2
param Network.tor[*].CacheSize 1000
param Network.agg[*].CacheSize 1000
param Network.controllerswitch.CacheSize 1000
param Network.tor[*].threshold 2
param Network.agg[*].threshold 2
param Network.controllerswitch.threshold 1
param Network.tor[*].Type 1001
param Network.agg[*].Type 1002
param Network.controllerswitch.Type 1003
param Network.rack[*].host[*].flow_appearance "\"\""
param Network.rack[*].host[*].flow_size "\"\""
param Network.policy_size "\"\""
param Network.cache_size "\"\""
param Network.propagation_time "\"\""
param Network.processing_time_on_data_packet_in_sw "\"\""
param Network.processing_time_on_data_packet_in_controller "\"\""
param Network.insertion_delay "\"\""
param Network.eviction_delay "\"\""
param Network.elephant_table_size "\"\""
param Network.flush_elephant_time "\"\""
param Network.check_for_elephant_time "\"\""
param Network.elephant_sample_rx "\"\""
param Network.bandwidth_elephant_threshold "\"\""
param Network.already_requested_threshold "\"\""
param Network.push_threshold_in_aggregation "\"\""
param Network.push_threshold_in_controller_switch "\"\""
param Network.cache_percentage "\"\""
param Network.eviction_sample_size "\"\""
param Network.inter_arrival_time_between_packets "\"\""
param Network.inter_arrival_time_between_flowlets "\"\""
param Network.inter_arrival_time_between_flows "\"\""
param Network.large_flow "\"\""
param Network.last_flow_id "\"0\""
param Network.last_flow_appearance "\"0\""
param Network.rack[*].last_flow_appearance "\"0\""

scalar Network.controller "Type: " 8e-005
statistic Network.rack[0].hub "flow count"
field count 12500
field mean 161.07736
field stddev 34.433767005299
field min 9
field max 212
field sum 2013467
field sqrsum 339143817
bin	-inf	0
bin	0	0
bin	4	0
bin	8	1
bin	12	7
bin	16	19
bin	20	23
bin	24	34
bin	28	22
bin	32	38
bin	36	27
bin	40	19
bin	44	39
bin	48	43
bin	52	28
bin	56	21
bin	60	27
bin	64	36
bin	68	29
bin	72	25
bin	76	55
bin	80	90
bin	84	115
bin	88	103
bin	92	92
bin	96	95
bin	100	77
bin	104	121
bin	108	135
bin	112	150
bin	116	147
bin	120	143
bin	124	135
bin	128	161
bin	132	96
bin	136	89
bin	140	94
bin	144	146
bin	148	201
bin	152	305
bin	156	433
bin	160	659
bin	164	888
bin	168	1113
bin	172	1261
bin	176	1334
bin	180	1215
bin	184	937
bin	188	724
bin	192	495
bin	196	272
bin	200	137
bin	204	38
bin	208	3
bin	212	3
bin	216	0
scalar Network.rack[0].hub "scalar: Total number of flows in the simulation:" 51715
statistic Network.rack[1].hub "flow count"
field count 12500
field mean 150.63464
field stddev 42.043029402936
field min 1
field max 199
field sum 1882933
field sqrsum 305728371
bin	-inf	0
bin	0	8
bin	4	22
bin	8	54
bin	12	41
bin	16	68
bin	20	31
bin	24	52
bin	28	64
bin	32	80
bin	36	48
bin	40	56
bin	44	67
bin	48	101
bin	52	58
bin	56	36
bin	60	114
bin	64	126
bin	68	139
bin	72	91
bin	76	79
bin	80	70
bin	84	59
bin	88	40
bin	92	69
bin	96	74
bin	100	67
bin	104	66
bin	108	91
bin	112	168
bin	116	78
bin	120	52
bin	124	183
bin	128	236
bin	132	253
bin	136	252
bin	140	163
bin	144	172
bin	148	97
bin	152	104
bin	156	341
bin	160	1099
bin	164	1659
bin	168	1447
bin	172	1378
bin	176	854
bin	180	631
bin	184	679
bin	188	481
bin	192	237
bin	196	65
bin	200	0
scalar Network.rack[1].hub "scalar: Total number of flows in the simulation:" 52047
statistic Network.rack[2].hub "flow count"
field count 12500
field mean 151.454
field stddev 36.793832457201
field min 2
field max 197
field sum 1893175
field sqrsum 303649899
bin	-inf	0
bin	0	8
bin	4	28
bin	8	52
bin	12	30
bin	16	42
bin	20	45
bin	24	41
bin	28	43
bin	32	20
bin	36	43
bin	40	39
bin	44	28
bin	48	39
bin	52	38
bin	56	75
bin	60	88
bin	64	83
bin	68	74
bin	72	76
bin	76	112
bin	80	84
bin	84	54
bin	88	26
bin	92	61
bin	96	108
bin	100	85
bin	104	64
bin	108	17
bin	112	27
bin	116	22
bin	120	16
bin	124	67
bin	128	195
bin	132	281
bin	136	324
bin	140	552
bin	144	593
bin	148	621
bin	152	515
bin	156	387
bin	160	721
bin	164	1290
bin	168	1661
bin	172	1301
bin	176	895
bin	180	939
bin	184	456
bin	188	120
bin	192	13
bin	196	1
bin	200	0
scalar Network.rack[2].hub "scalar: Total number of flows in the simulation:" 52363
statistic Network.rack[3].hub "flow count"
field count 12500
field mean 153.21472
field stddev 37.075026903985
field min 2
field max 193
field sum 1915184
field sqrsum 310614976
bin	-inf	0
bin	0	7
bin	4	8
bin	8	11
bin	12	35
bin	16	35
bin	20	38
bin	24	51
bin	28	58
bin	32	62
bin	36	40
bin	40	28
bin	44	40
bin	48	45
bin	52	57
bin	56	138
bin	60	57
bin	64	56
bin	68	75
bin	72	66
bin	76	80
bin	80	45
bin	84	29
bin	88	13
bin	92	22
bin	96	62
bin	100	111
bin	104	178
bin	108	78
bin	112	86
bin	116	177
bin	120	185
bin	124	222
bin	128	151
bin	132	93
bin	136	79
bin	140	109
bin	144	207
bin	148	323
bin	152	659
bin	156	854
bin	160	601
bin	164	902
bin	168	1531
bin	172	1642
bin	176	1564
bin	180	1034
bin	184	436
bin	188	115
bin	192	5
bin	196	0
scalar Network.rack[3].hub "scalar: Total number of flows in the simulation:" 51979
statistic Network.rack[4].hub "flow count"
field count 12500
field mean 148.17984
field stddev 35.423592760311
field min 1
field max 206
field sum 1852248
field sqrsum 290149944
bin	-inf	0
bin	0	10
bin	4	7
bin	8	35
bin	12	50
bin	16	69
bin	20	42
bin	24	29
bin	28	34
bin	32	71
bin	36	59
bin	40	44
bin	44	80
bin	48	65
bin	52	32
bin	56	75
bin	60	58
bin	64	70
bin	68	69
bin	72	34
bin	76	12
bin	80	24
bin	84	21
bin	88	45
bin	92	84
bin	96	178
bin	100	116
bin	104	60
bin	108	26
bin	112	41
bin	116	118
bin	120	159
bin	124	63
bin	128	40
bin	132	29
bin	136	65
bin	140	225
bin	144	584
bin	148	1026
bin	152	1178
bin	156	1575
bin	160	1667
bin	164	1667
bin	168	1283
bin	172	491
bin	176	205
bin	180	131
bin	184	58
bin	188	178
bin	192	129
bin	196	68
bin	200	18
bin	204	3
bin	208	0
scalar Network.rack[4].hub "scalar: Total number of flows in the simulation:" 51476
statistic Network.tor[0] "flow count"
field count 12500
field mean 144.50328
field stddev 33.505158362445
field min 3
field max 189
field sum 1806291
field sqrsum 275046297
bin	-inf	0
bin	0	2
bin	4	27
bin	8	30
bin	12	29
bin	16	24
bin	20	36
bin	24	37
bin	28	13
bin	32	41
bin	36	48
bin	40	28
bin	44	28
bin	48	31
bin	52	20
bin	56	33
bin	60	38
bin	64	69
bin	68	121
bin	72	126
bin	76	118
bin	80	68
bin	84	78
bin	88	114
bin	92	148
bin	96	163
bin	100	146
bin	104	148
bin	108	170
bin	112	173
bin	116	94
bin	120	44
bin	124	94
bin	128	143
bin	132	242
bin	136	257
bin	140	398
bin	144	661
bin	148	943
bin	152	1261
bin	156	1386
bin	160	1407
bin	164	1265
bin	168	868
bin	172	582
bin	176	483
bin	180	211
bin	184	53
bin	188	1
bin	192	0
statistic Network.tor[1] "flow count"
field count 12500
field mean 154.7852
field stddev 42.274432357756
field min 4
field max 206
field sum 1934815
field sqrsum 321818035
bin	-inf	0
bin	0	0
bin	4	13
bin	8	32
bin	12	50
bin	16	40
bin	20	61
bin	24	39
bin	28	52
bin	32	69
bin	36	71
bin	40	49
bin	44	55
bin	48	68
bin	52	89
bin	56	59
bin	60	43
bin	64	109
bin	68	137
bin	72	131
bin	76	88
bin	80	89
bin	84	67
bin	88	52
bin	92	43
bin	96	68
bin	100	73
bin	104	71
bin	108	62
bin	112	90
bin	116	148
bin	120	87
bin	124	75
bin	128	183
bin	132	215
bin	136	259
bin	140	245
bin	144	168
bin	148	167
bin	152	101
bin	156	114
bin	160	393
bin	164	1049
bin	168	1565
bin	172	1470
bin	176	1315
bin	180	912
bin	184	654
bin	188	668
bin	192	478
bin	196	267
bin	200	87
bin	204	10
bin	208	0
statistic Network.tor[2] "flow count"
field count 12500
field mean 155.63104
field stddev 37.01436739416
field min 3
field max 202
field sum 1945388
field sqrsum 319887180
bin	-inf	0
bin	0	1
bin	4	15
bin	8	29
bin	12	46
bin	16	33
bin	20	42
bin	24	42
bin	28	46
bin	32	39
bin	36	21
bin	40	41
bin	44	37
bin	48	25
bin	52	43
bin	56	41
bin	60	71
bin	64	92
bin	68	85
bin	72	68
bin	76	81
bin	80	109
bin	84	83
bin	88	48
bin	92	40
bin	96	57
bin	100	99
bin	104	85
bin	108	58
bin	112	34
bin	116	20
bin	120	21
bin	124	21
bin	128	70
bin	132	202
bin	136	260
bin	140	325
bin	144	503
bin	148	624
bin	152	621
bin	156	488
bin	160	453
bin	164	736
bin	168	1242
bin	172	1528
bin	176	1308
bin	180	992
bin	184	843
bin	188	534
bin	192	158
bin	196	35
bin	200	5
bin	204	0
statistic Network.tor[3] "flow count"
field count 12500
field mean 157.35872
field stddev 37.323993977115
field min 4
field max 199
field sum 1966984
field sqrsum 326934198
bin	-inf	0
bin	0	0
bin	4	11
bin	8	10
bin	12	10
bin	16	36
bin	20	37
bin	24	38
bin	28	49
bin	32	58
bin	36	57
bin	40	41
bin	44	26
bin	48	49
bin	52	36
bin	56	77
bin	60	112
bin	64	64
bin	68	61
bin	72	68
bin	76	78
bin	80	72
bin	84	54
bin	88	16
bin	92	15
bin	96	23
bin	100	55
bin	104	128
bin	108	161
bin	112	72
bin	116	107
bin	120	173
bin	124	187
bin	128	210
bin	132	143
bin	136	103
bin	140	79
bin	144	124
bin	148	210
bin	152	325
bin	156	650
bin	160	802
bin	164	646
bin	168	918
bin	172	1412
bin	176	1604
bin	180	1541
bin	184	1068
bin	188	483
bin	192	178
bin	196	23
bin	200	0
statistic Network.tor[4] "flow count"
field count 12500
field mean 152.28256
field stddev 35.669642354771
field min 3
field max 213
field sum 1903532
field sqrsum 305777496
bin	-inf	0
bin	0	2
bin	4	11
bin	8	12
bin	12	35
bin	16	54
bin	20	65
bin	24	40
bin	28	36
bin	32	28
bin	36	69
bin	40	56
bin	44	52
bin	48	83
bin	52	57
bin	56	41
bin	60	70
bin	64	55
bin	68	67
bin	72	76
bin	76	24
bin	80	13
bin	84	23
bin	88	28
bin	92	40
bin	96	89
bin	100	168
bin	104	117
bin	108	60
bin	112	30
bin	116	52
bin	120	115
bin	124	138
bin	128	73
bin	132	42
bin	136	29
bin	140	77
bin	144	238
bin	148	611
bin	152	938
bin	156	1207
bin	160	1544
bin	164	1676
bin	168	1598
bin	172	1235
bin	176	590
bin	180	227
bin	184	138
bin	188	82
bin	192	147
bin	196	128
bin	200	85
bin	204	22
bin	208	6
bin	212	1
bin	216	0
statistic Network.agg[0] "flow count"
field count 12500
field mean 245.70016
field stddev 56.410566635486
field min 4
field max 318
field sum 3071252
field sqrsum 794380826
bin	-inf	0
bin	0	0
bin	4	3
bin	8	8
bin	12	7
bin	16	8
bin	20	21
bin	24	35
bin	28	46
bin	32	30
bin	36	30
bin	40	13
bin	44	16
bin	48	19
bin	52	31
bin	56	19
bin	60	19
bin	64	8
bin	68	19
bin	72	37
bin	76	27
bin	80	23
bin	84	21
bin	88	25
bin	92	17
bin	96	37
bin	100	61
bin	104	28
bin	108	50
bin	112	62
bin	116	32
bin	120	39
bin	124	27
bin	128	17
bin	132	53
bin	136	63
bin	140	60
bin	144	41
bin	148	43
bin	152	38
bin	156	52
bin	160	52
bin	164	33
bin	168	32
bin	172	39
bin	176	75
bin	180	65
bin	184	39
bin	188	9
bin	192	21
bin	196	52
bin	200	124
bin	204	219
bin	208	229
bin	212	169
bin	216	92
bin	220	80
bin	224	101
bin	228	91
bin	232	56
bin	236	117
bin	240	228
bin	244	350
bin	248	433
bin	252	574
bin	256	807
bin	260	889
bin	264	1037
bin	268	987
bin	272	937
bin	276	792
bin	280	673
bin	284	441
bin	288	306
bin	292	329
bin	296	378
bin	300	237
bin	304	127
bin	308	76
bin	312	16
bin	316	3
bin	320	0
statistic Network.agg[1] "flow count"
field count 12500
field mean 257.58736
field stddev 63.430224339026
field min 3
field max 326
field sum 3219842
field sqrsum 879678994
bin	-inf	0
bin	0	1
bin	4	4
bin	8	5
bin	12	6
bin	16	22
bin	20	16
bin	24	17
bin	28	21
bin	32	17
bin	36	15
bin	40	26
bin	44	26
bin	48	27
bin	52	43
bin	56	28
bin	60	29
bin	64	30
bin	68	18
bin	72	11
bin	76	18
bin	80	33
bin	84	15
bin	88	16
bin	92	31
bin	96	60
bin	100	74
bin	104	87
bin	108	49
bin	112	32
bin	116	45
bin	120	64
bin	124	46
bin	128	41
bin	132	37
bin	136	37
bin	140	22
bin	144	26
bin	148	45
bin	152	117
bin	156	130
bin	160	84
bin	164	32
bin	168	39
bin	172	33
bin	176	30
bin	180	47
bin	184	67
bin	188	43
bin	192	35
bin	196	27
bin	200	26
bin	204	46
bin	208	96
bin	212	112
bin	216	60
bin	220	39
bin	224	39
bin	228	109
bin	232	167
bin	236	223
bin	240	243
bin	244	242
bin	248	209
bin	252	161
bin	256	135
bin	260	130
bin	264	178
bin	268	389
bin	272	638
bin	276	873
bin	280	866
bin	284	829
bin	288	784
bin	292	661
bin	296	716
bin	300	918
bin	304	821
bin	308	546
bin	312	285
bin	316	109
bin	320	23
bin	324	3
bin	328	0
statistic Network.agg[2] "flow count"
field count 12500
field mean 261.3792
field stddev 63.083991111492
field min 8
field max 325
field sum 3267240
field sqrsum 903729472
bin	-inf	0
bin	0	0
bin	4	0
bin	8	10
bin	12	8
bin	16	26
bin	20	31
bin	24	22
bin	28	12
bin	32	16
bin	36	36
bin	40	35
bin	44	18
bin	48	16
bin	52	30
bin	56	38
bin	60	40
bin	64	23
bin	68	22
bin	72	39
bin	76	42
bin	80	31
bin	84	17
bin	88	30
bin	92	43
bin	96	57
bin	100	60
bin	104	44
bin	108	42
bin	112	50
bin	116	34
bin	120	29
bin	124	37
bin	128	20
bin	132	23
bin	136	26
bin	140	37
bin	144	26
bin	148	54
bin	152	60
bin	156	53
bin	160	50
bin	164	59
bin	168	36
bin	172	54
bin	176	44
bin	180	25
bin	184	22
bin	188	22
bin	192	51
bin	196	63
bin	200	72
bin	204	55
bin	208	60
bin	212	35
bin	216	41
bin	220	51
bin	224	52
bin	228	30
bin	232	29
bin	236	30
bin	240	45
bin	244	30
bin	248	70
bin	252	98
bin	256	158
bin	260	258
bin	264	386
bin	268	554
bin	272	759
bin	276	1065
bin	280	1047
bin	284	837
bin	288	717
bin	292	833
bin	296	1058
bin	300	1083
bin	304	786
bin	308	427
bin	312	141
bin	316	26
bin	320	2
bin	324	2
bin	328	0
statistic Network.controllerswitch "flow count"
field count 12500
field mean 732.53376
field stddev 210.41575787843
field min 12
field max 906
field sum 9156672
field sqrsum 7260961984
bin	-inf	0
bin	0	12
bin	20	97
bin	40	75
bin	60	69
bin	80	52
bin	100	50
bin	120	80
bin	140	88
bin	160	99
bin	180	150
bin	200	108
bin	220	94
bin	240	57
bin	260	42
bin	280	31
bin	300	55
bin	320	61
bin	340	60
bin	360	55
bin	380	71
bin	400	70
bin	420	24
bin	440	22
bin	460	30
bin	480	27
bin	500	56
bin	520	80
bin	540	85
bin	560	65
bin	580	109
bin	600	122
bin	620	92
bin	640	61
bin	660	140
bin	680	227
bin	700	137
bin	720	209
bin	740	488
bin	760	308
bin	780	654
bin	800	1774
bin	820	2517
bin	840	1944
bin	860	1436
bin	880	410
bin	900	7
bin	920	0
statistic Network.dest "miss count"
field count 0
field mean nan
field stddev nan
field min nan
field max nan
field sum 0
field sqrsum 0
bin	-inf	0
bin	0	0
bin	1	0
statistic Network.dest "out of order"
field count 0
field mean nan
field stddev nan
field min nan
field max nan
field sum 0
field sqrsum 0
bin	-inf	0
bin	0	0
bin	1	0

