version 2
run General-0-20221123-12:07:49-18584
attr configname General
attr datetime 20221123-12:07:49
attr experiment General
attr inifile omnetpp.ini
attr iterationvars ""
attr iterationvarsf ""
attr measurement ""
attr network Network
attr processid 18584
attr repetition 0
attr replication #0
attr resultdir results
attr runnumber 0
attr seedset 0
param Network.NumOfToRs 5
param Network.NumOfAggregation 3
param Network.rack[*].number_of_hosts 50000
param Network.linedelay 0.2
param Network.tor[*].CacheSize 1000
param Network.agg[*].CacheSize 1000
param Network.controllerswitch.CacheSize 1000
param Network.tor[*].threshold 2
param Network.agg[*].threshold 2
param Network.controllerswitch.threshold 1
param Network.tor[*].Type 1001
param Network.agg[*].Type 1002
param Network.controllerswitch.Type 1003
param Network.rack[*].host[*].flow_appearance "\"\""
param Network.rack[*].host[*].flow_size "\"\""
param Network.policy_size "\"\""
param Network.cache_size "\"\""
param Network.propagation_time "\"\""
param Network.processing_time_on_data_packet_in_sw "\"\""
param Network.processing_time_on_data_packet_in_controller "\"\""
param Network.insertion_delay "\"\""
param Network.eviction_delay "\"\""
param Network.elephant_table_size "\"\""
param Network.flush_elephant_time "\"\""
param Network.check_for_elephant_time "\"\""
param Network.elephant_sample_rx "\"\""
param Network.bandwidth_elephant_threshold "\"\""
param Network.already_requested_threshold "\"\""
param Network.push_threshold_in_aggregation "\"\""
param Network.push_threshold_in_controller_switch "\"\""
param Network.cache_percentage "\"\""
param Network.eviction_sample_size "\"\""
param Network.inter_arrival_time_between_packets "\"\""
param Network.inter_arrival_time_between_flowlets "\"\""
param Network.inter_arrival_time_between_flows "\"\""
param Network.large_flow "\"\""
param Network.last_flow_id "\"0\""
param Network.last_flow_appearance "\"0\""
param Network.rack[*].last_flow_appearance "\"0\""

vector 0 Network.rack[0].hub flowlet_count ETV
vector 1 Network.rack[1].hub flowlet_count ETV
vector 2 Network.rack[2].hub flowlet_count ETV
vector 3 Network.rack[3].hub flowlet_count ETV
vector 4 Network.rack[4].hub flowlet_count ETV
0	2807	0.001	0
0	14944	0.002	0
0	37926	0.003	0
0	70570	0.004	0
0	111402	0.005	0
0	159291	0.006	0
0	214795	0.007	0
0	282418	0.008	0
0	360390	0.009	0
0	448745	0.01	0
0	555315	0.011	0
0	693303	0.012	0
0	843349	0.013	0
0	1001366	0.014	0
0	1198070	0.015	0
0	1412947	0.016	0
0	1641376	0.017	0
0	1882035	0.018	0
0	2141950	0.019	0
0	2411661	0.02	0
0	2693465	0.021	0
0	2985528	0.022	0
0	3298916	0.023	0
0	3639057	0.024	0
0	3989843	0.025	0
0	4348432	0.026	0
0	4724721	0.027	0
0	5109730	0.028	0
0	5504714	0.029	0
0	5914807	0.03	0
0	6337013	0.031	0
0	6767999	0.032	0
0	7223791	0.033	0
0	7695083	0.034	0
0	8188238	0.035	0
0	8711241	0.036	0
0	9243820	0.037	0
0	9785596	0.038	0
0	10336314	0.039	0
0	10896394	0.04	0
0	11476320	0.041	0
0	12066730	0.042	0
0	12672931	0.043	0
0	13310153	0.044	0
0	13960879	0.045	0
0	14627179	0.046	0
0	15302893	0.047	0
0	15987857	0.048	0
0	16678198	0.049	0
0	17380287	0.05	0
0	18093204	0.051	0
0	18822331	0.052	0
0	19561086	0.053	0
0	20310637	0.054	0
0	21070213	0.055	0
0	21839679	0.056	0
0	22616815	0.057	0
0	23401593	0.058	0
0	24201638	0.059	0
0	25020672	0.06	0
0	25861248	0.061	0
0	26718927	0.062	0
0	27589747	0.063	0
0	28473512	0.064	0
0	29366775	0.065	0
0	30270473	0.066	0
0	31183862	0.067	0
0	32113524	0.068	0
0	33082938	0.069	0
0	34061441	0.07	0
0	35058166	0.071	0
0	36087470	0.072	0
0	37144510	0.073	0
0	38216827	0.074	0
0	39320027	0.075	0
0	40433756	0.076	0
0	41575095	0.077	0
0	42733444	0.078	0
0	43903297	0.079	0
0	45094499	0.08	0
0	46301217	0.081	0
0	47516876	0.082	0
0	48747325	0.083	0
0	49995470	0.084	0
0	51255086	0.085	0
0	52524346	0.086	0
0	53809878	0.087	0
0	55114858	0.088	0
0	56459106	0.089	0
0	57825526	0.09	0
0	59227352	0.091	0
0	60680898	0.092	0
0	62156066	0.093	0
0	63639885	0.094	0
0	65132771	0.095	0
0	66635462	0.096	0
0	68150271	0.097	0
0	69679760	0.098	0
0	71237878	0.099	0
0	72820742	0.1	0
0	74416956	0.101	0
0	76024517	0.102	0
0	77641100	0.103	0
0	79272481	0.104	0
0	80921060	0.105	0
0	82585474	0.106	0
0	84265580	0.107	0
0	85954263	0.108	0
0	87675584	0.109	0
0	89417408	0.11	0
0	91166295	0.111	0
0	92928712	0.112	0
0	94700788	0.113	0
0	96479638	0.114	0
0	98271169	0.115	0
0	100078230	0.116	0
0	101892678	0.117	0
0	103713025	0.118	0
0	105541560	0.119	0
0	107379744	0.12	0
0	109234029	0.121	0
0	111101793	0.122	0
0	112977197	0.123	0
0	114866168	0.124	0
0	116765049	0.125	0
0	118676800	0.126	0
0	120614661	0.127	0
0	122564680	0.128	0
0	124520447	0.129	0
0	126490039	0.13	0
0	128472506	0.131	0
0	130463617	0.132	0
0	132466644	0.133	0
0	134481568	0.134	0
0	136506256	0.135	0
0	138539788	0.136	0
0	140584269	0.137	0
0	142638330	0.138	0
0	144712284	0.139	0
0	146819462	0.14	0
0	148947682	0.141	0
0	151086180	0.142	0
0	153238826	0.143	0
0	155404243	0.144	0
0	157587015	0.145	0
0	159808494	0.146	0
0	162060279	0.147	0
0	164332548	0.148	0
0	166616037	0.149	0
0	168911409	0.15	0
0	171222621	0.151	0
0	173542906	0.152	0
0	175872736	0.153	0
0	178212706	0.154	0
0	180561698	0.155	0
0	182923799	0.156	0
0	185297169	0.157	0
0	187682453	0.158	0
0	190081924	0.159	0
0	192500300	0.16	0
0	194932090	0.161	0
0	197375808	0.162	0
0	199838385	0.163	0
0	202311235	0.164	0
0	204795396	0.165	0
0	207288899	0.166	0
0	209795114	0.167	0
0	212318232	0.168	0
0	214853409	0.169	0
0	217405628	0.17	0
0	219967438	0.171	0
0	222539152	0.172	0
0	225131902	0.173	0
0	227759904	0.174	0
0	230397890	0.175	0
0	233046468	0.176	0
0	235708281	0.177	0
0	238380854	0.178	0
0	241086912	0.179	0
0	243812608	0.18	0
0	246554428	0.181	0
0	249310929	0.182	0
0	252079822	0.183	0
0	254861080	0.184	0
0	257653579	0.185	0
0	260451489	0.186	0
0	263256257	0.187	0
0	266106477	0.188	0
0	268977661	0.189	0
0	271856416	0.19	0
0	274742050	0.191	0
0	277635951	0.192	0
0	280541009	0.193	0
0	283463434	0.194	0
0	286400663	0.195	0
0	289346789	0.196	0
0	292301483	0.197	0
0	295273534	0.198	0
0	298287663	0.199	0
0	301326537	0.2	0
0	304375762	0.201	0
0	307434192	0.202	0
0	310509196	0.203	0
0	313617380	0.204	0
0	316767802	0.205	0
0	319935925	0.206	0
0	323121703	0.207	0
0	326326108	0.208	0
0	329540435	0.209	0
0	332761561	0.21	0
0	335992622	0.211	0
0	339239773	0.212	0
0	342510612	0.213	0
0	345800120	0.214	0
0	349098593	0.215	0
0	352406199	0.216	0
0	355742635	0.217	0
0	359106520	0.218	0
0	362480344	0.219	0
0	365864610	0.22	0
0	369263782	0.221	0
0	372670002	0.222	0
0	376085860	0.223	0
0	379518324	0.224	0
0	382962870	0.225	0
0	386415551	0.226	0
0	389879089	0.227	0
0	393351597	0.228	0
0	396841817	0.229	0
0	400340703	0.23	0
0	403851644	0.231	0
0	407372931	0.232	0
0	410919055	0.233	0
0	414495281	0.234	0
0	418121516	0.235	0
0	421764657	0.236	0
0	425419450	0.237	0
0	429082444	0.238	0
0	432752712	0.239	0
0	436431236	0.24	0
0	440119705	0.241	0
0	443830631	0.242	0
0	447552547	0.243	0
0	451283714	0.244	0
0	455037695	0.245	0
0	458839431	0.246	0
0	462649938	0.247	0
0	466470703	0.248	0
0	470313308	0.249	0
0	474174376	0.25	0
0	478047653	0.251	0
0	481933941	0.252	0
0	485829478	0.253	0
0	489734307	0.254	0
0	493647850	0.255	0
0	497571429	0.256	0
0	501503740	0.257	0
0	505446080	0.258	0
0	509395367	0.259	0
0	513353401	0.26	0
0	517321273	0.261	0
0	521299847	0.262	0
0	525302421	0.263	0
0	529315638	0.264	0
0	533337578	0.265	0
0	537387230	0.266	0
0	541475138	0.267	0
0	545571091	0.268	0
0	549678961	0.269	0
0	553800340	0.27	0
0	557934144	0.271	0
0	562104049	0.272	0
0	566299352	0.273	0
0	570509676	0.274	0
0	574758446	0.275	0
0	579019639	0.276	0
0	583289497	0.277	0
0	587569421	0.278	0
0	591862058	0.279	0
0	596164559	0.28	0
0	600481137	0.281	0
0	604809308	0.282	0
0	609162138	0.283	0
0	613545572	0.284	0
0	617942767	0.285	0
0	622355802	0.286	0
0	626775290	0.287	0
0	631217434	0.288	0
0	635685918	0.289	0
0	640169600	0.29	0
0	644666562	0.291	0
0	649177866	0.292	0
0	653699787	0.293	0
0	658231315	0.294	0
0	662790382	0.295	0
0	667360532	0.296	0
0	671942963	0.297	0
0	676540655	0.298	0
0	681160401	0.299	0
0	685787810	0.3	0
0	690421695	0.301	0
0	695068270	0.302	0
0	699748186	0.303	0
0	704457181	0.304	0
0	709188843	0.305	0
0	713937140	0.306	0
0	718700903	0.307	0
0	723477018	0.308	0
0	728259872	0.309	0
0	733064832	0.31	0
0	737897372	0.311	0
0	742738493	0.312	0
0	747588447	0.313	0
0	752455814	0.314	0
0	757336457	0.315	0
0	762227901	0.316	0
0	767129528	0.317	0
0	772039153	0.318	0
0	776957249	0.319	0
0	781885473	0.32	0
0	786836669	0.321	0
0	791821341	0.322	0
0	796822910	0.323	0
0	801841430	0.324	0
0	806874071	0.325	0
0	811930147	0.326	0
0	816997150	0.327	0
0	822074876	0.328	0
0	827162801	0.329	0
0	832278316	0.33	0
0	837408667	0.331	0
0	842549759	0.332	0
0	847700879	0.333	0
0	852889531	0.334	0
0	858104326	0.335	0
0	863333413	0.336	0
0	868592928	0.337	0
0	873882933	0.338	0
0	879183556	0.339	0
0	884496034	0.34	0
0	889816320	0.341	0
0	895142630	0.342	0
0	900478086	0.343	0
0	905826075	0.344	0
0	911183926	0.345	0
0	916566091	0.346	0
0	921982849	0.347	0
0	927423653	0.348	0
0	932876116	0.349	0
0	938336444	0.35	0
0	943806962	0.351	0
0	949289823	0.352	0
0	954784596	0.353	0
0	960292152	0.354	0
0	965807577	0.355	0
0	971334462	0.356	0
0	976870004	0.357	0
0	982418547	0.358	0
0	987977105	0.359	0
0	993548298	0.36	0
0	999132021	0.361	0
0	1004729418	0.362	0
0	1010338764	0.363	0
0	1015965213	0.364	0
0	1021598521	0.365	0
0	1027242088	0.366	0
0	1032892983	0.367	0
0	1038552779	0.368	0
0	1044241009	0.369	0
0	1049938277	0.37	0
0	1055645259	0.371	0
0	1061363947	0.372	0
0	1067098759	0.373	0
0	1072850585	0.374	0
0	1078635841	0.375	0
0	1084437616	0.376	0
0	1090278645	0.377	0
0	1096148821	0.378	0
0	1102031930	0.379	0
0	1107938081	0.38	0
0	1113854830	0.381	0
0	1119783187	0.382	0
0	1125723094	0.383	0
0	1131680860	0.384	0
0	1137652397	0.385	0
0	1143635164	0.386	0
0	1149629245	0.387	0
0	1155638464	0.388	0
0	1161660662	0.389	0
0	1167692083	0.39	0
0	1173731436	0.391	0
0	1179779803	0.392	0
0	1185842155	0.393	0
0	1191923020	0.394	0
0	1198015860	0.395	0
0	1204131996	0.396	0
0	1210267988	0.397	0
0	1216420433	0.398	0
0	1222601942	0.399	0
0	1228806870	0.4	0
0	1235021091	0.401	0
0	1241263241	0.402	0
0	1247521737	0.403	0
0	1253795342	0.404	0
0	1260075212	0.405	0
0	1266364473	0.406	0
0	1272667057	0.407	0
0	1278984011	0.408	0
0	1285321649	0.409	0
0	1291674067	0.41	0
0	1298050270	0.411	0
0	1304439089	0.412	0
0	1310840563	0.413	0
0	1317258854	0.414	0
0	1323686256	0.415	0
0	1330120884	0.416	0
0	1336565989	0.417	0
0	1343034905	0.418	0
0	1349530028	0.419	0
0	1356040400	0.42	0
0	1362559055	0.421	0
0	1369092042	0.422	0
0	1375636931	0.423	0
1	2808	0.001	0
1	14945	0.002	0
1	37927	0.003	0
1	70571	0.004	0
1	111403	0.005	0
1	159292	0.006	0
1	214796	0.007	0
1	282419	0.008	0
1	360391	0.009	0
1	448746	0.01	0
1	555316	0.011	0
1	693304	0.012	0
1	843350	0.013	0
1	1001367	0.014	0
1	1198071	0.015	0
1	1412948	0.016	0
1	1641377	0.017	0
1	1882036	0.018	0
1	2141951	0.019	0
1	2411662	0.02	0
1	2693466	0.021	0
1	2985529	0.022	0
1	3298917	0.023	0
1	3639058	0.024	0
1	3989844	0.025	0
1	4348433	0.026	0
1	4724722	0.027	0
1	5109731	0.028	0
1	5504715	0.029	0
1	5914808	0.03	0
1	6337014	0.031	0
1	6768000	0.032	0
1	7223792	0.033	0
1	7695084	0.034	0
1	8188239	0.035	0
1	8711242	0.036	0
1	9243821	0.037	0
1	9785597	0.038	0
1	10336315	0.039	0
1	10896395	0.04	0
1	11476321	0.041	0
1	12066731	0.042	0
1	12672932	0.043	0
1	13310154	0.044	0
1	13960880	0.045	0
1	14627180	0.046	0
1	15302894	0.047	0
1	15987858	0.048	0
1	16678199	0.049	0
1	17380288	0.05	0
1	18093205	0.051	0
1	18822332	0.052	0
1	19561087	0.053	0
1	20310638	0.054	0
1	21070214	0.055	0
1	21839680	0.056	0
1	22616816	0.057	0
1	23401594	0.058	0
1	24201639	0.059	0
1	25020673	0.06	0
1	25861249	0.061	0
1	26718928	0.062	0
1	27589748	0.063	0
1	28473513	0.064	0
1	29366776	0.065	0
1	30270474	0.066	0
1	31183863	0.067	0
1	32113525	0.068	0
1	33082939	0.069	0
1	34061442	0.07	0
1	35058167	0.071	0
1	36087471	0.072	0
1	37144511	0.073	0
1	38216828	0.074	0
1	39320028	0.075	0
1	40433757	0.076	0
1	41575096	0.077	0
1	42733445	0.078	0
1	43903298	0.079	0
1	45094500	0.08	0
1	46301218	0.081	0
1	47516877	0.082	0
1	48747326	0.083	0
1	49995471	0.084	0
1	51255087	0.085	0
1	52524347	0.086	0
1	53809879	0.087	0
1	55114859	0.088	0
1	56459107	0.089	0
1	57825527	0.09	0
1	59227353	0.091	0
1	60680899	0.092	0
1	62156067	0.093	0
1	63639886	0.094	0
1	65132772	0.095	0
1	66635463	0.096	0
1	68150272	0.097	0
1	69679761	0.098	0
1	71237879	0.099	0
1	72820743	0.1	0
1	74416957	0.101	0
1	76024518	0.102	0
1	77641101	0.103	0
1	79272482	0.104	0
1	80921061	0.105	0
1	82585475	0.106	0
1	84265581	0.107	0
1	85954264	0.108	0
1	87675585	0.109	0
1	89417409	0.11	0
1	91166296	0.111	0
1	92928713	0.112	0
1	94700789	0.113	0
1	96479639	0.114	0
1	98271170	0.115	0
1	100078231	0.116	0
1	101892679	0.117	0
1	103713026	0.118	0
1	105541561	0.119	0
1	107379745	0.12	0
1	109234030	0.121	0
1	111101794	0.122	0
1	112977198	0.123	0
1	114866169	0.124	0
1	116765050	0.125	0
1	118676801	0.126	0
1	120614662	0.127	0
1	122564681	0.128	0
1	124520448	0.129	0
1	126490040	0.13	0
1	128472507	0.131	0
1	130463618	0.132	0
1	132466645	0.133	0
1	134481569	0.134	0
1	136506257	0.135	0
1	138539789	0.136	0
1	140584270	0.137	0
1	142638331	0.138	0
1	144712285	0.139	0
1	146819463	0.14	0
1	148947683	0.141	0
1	151086181	0.142	0
1	153238827	0.143	0
1	155404244	0.144	0
1	157587016	0.145	0
1	159808495	0.146	0
1	162060280	0.147	0
1	164332549	0.148	0
1	166616038	0.149	0
1	168911410	0.15	0
1	171222622	0.151	0
1	173542907	0.152	0
1	175872737	0.153	0
1	178212707	0.154	0
1	180561699	0.155	0
1	182923800	0.156	0
1	185297170	0.157	0
1	187682454	0.158	0
1	190081925	0.159	0
1	192500301	0.16	0
1	194932091	0.161	0
1	197375809	0.162	0
1	199838386	0.163	0
1	202311236	0.164	0
1	204795397	0.165	0
1	207288900	0.166	0
1	209795115	0.167	0
1	212318233	0.168	0
1	214853410	0.169	0
1	217405629	0.17	0
1	219967439	0.171	0
1	222539153	0.172	0
1	225131903	0.173	0
1	227759905	0.174	0
1	230397891	0.175	0
1	233046469	0.176	0
1	235708282	0.177	0
1	238380855	0.178	0
1	241086913	0.179	0
1	243812609	0.18	0
1	246554429	0.181	0
1	249310930	0.182	0
1	252079823	0.183	0
1	254861081	0.184	0
1	257653580	0.185	0
1	260451490	0.186	0
1	263256258	0.187	0
1	266106478	0.188	0
1	268977662	0.189	0
1	271856417	0.19	0
1	274742051	0.191	0
1	277635952	0.192	0
1	280541010	0.193	0
1	283463435	0.194	0
1	286400664	0.195	0
1	289346790	0.196	0
1	292301484	0.197	0
1	295273535	0.198	0
1	298287664	0.199	0
1	301326538	0.2	0
1	304375763	0.201	0
1	307434193	0.202	0
1	310509197	0.203	0
1	313617381	0.204	0
1	316767803	0.205	0
1	319935926	0.206	0
1	323121704	0.207	0
1	326326109	0.208	0
1	329540436	0.209	0
1	332761562	0.21	0
1	335992623	0.211	0
1	339239774	0.212	0
1	342510613	0.213	0
1	345800121	0.214	0
1	349098594	0.215	0
1	352406200	0.216	0
1	355742636	0.217	0
1	359106521	0.218	0
1	362480345	0.219	0
1	365864611	0.22	0
1	369263783	0.221	0
1	372670003	0.222	0
1	376085861	0.223	0
1	379518325	0.224	0
1	382962871	0.225	0
1	386415552	0.226	0
1	389879090	0.227	0
1	393351598	0.228	0
1	396841818	0.229	0
1	400340704	0.23	0
1	403851645	0.231	0
1	407372932	0.232	0
1	410919056	0.233	0
1	414495282	0.234	0
1	418121517	0.235	0
1	421764658	0.236	0
1	425419451	0.237	0
1	429082445	0.238	0
1	432752713	0.239	0
1	436431237	0.24	0
1	440119706	0.241	0
1	443830632	0.242	0
1	447552548	0.243	0
1	451283715	0.244	0
1	455037696	0.245	0
1	458839432	0.246	0
1	462649939	0.247	0
1	466470704	0.248	0
1	470313309	0.249	0
1	474174377	0.25	0
1	478047654	0.251	0
1	481933942	0.252	0
1	485829479	0.253	0
1	489734308	0.254	0
1	493647851	0.255	0
1	497571430	0.256	0
1	501503741	0.257	0
1	505446081	0.258	0
1	509395368	0.259	0
1	513353402	0.26	0
1	517321274	0.261	0
1	521299848	0.262	0
1	525302422	0.263	0
1	529315639	0.264	0
1	533337579	0.265	0
1	537387231	0.266	0
1	541475139	0.267	0
1	545571092	0.268	0
1	549678962	0.269	0
1	553800341	0.27	0
1	557934145	0.271	0
1	562104050	0.272	0
1	566299353	0.273	0
1	570509677	0.274	0
1	574758447	0.275	0
1	579019640	0.276	0
1	583289498	0.277	0
1	587569422	0.278	0
1	591862059	0.279	0
1	596164560	0.28	0
1	600481138	0.281	0
1	604809309	0.282	0
1	609162139	0.283	0
1	613545573	0.284	0
1	617942768	0.285	0
1	622355803	0.286	0
1	626775291	0.287	0
1	631217435	0.288	0
1	635685919	0.289	0
1	640169601	0.29	0
1	644666563	0.291	0
1	649177867	0.292	0
1	653699788	0.293	0
1	658231316	0.294	0
1	662790383	0.295	0
1	667360533	0.296	0
1	671942964	0.297	0
1	676540656	0.298	0
1	681160402	0.299	0
1	685787811	0.3	0
1	690421696	0.301	0
1	695068271	0.302	0
1	699748187	0.303	0
1	704457182	0.304	0
1	709188844	0.305	0
1	713937141	0.306	0
1	718700904	0.307	0
1	723477019	0.308	0
1	728259873	0.309	0
1	733064833	0.31	0
1	737897373	0.311	0
1	742738494	0.312	0
1	747588448	0.313	0
1	752455815	0.314	0
1	757336458	0.315	0
1	762227902	0.316	0
1	767129529	0.317	0
1	772039154	0.318	0
1	776957250	0.319	0
1	781885474	0.32	0
1	786836670	0.321	0
1	791821342	0.322	0
1	796822911	0.323	0
1	801841431	0.324	0
1	806874072	0.325	0
1	811930148	0.326	0
1	816997151	0.327	0
1	822074877	0.328	0
1	827162802	0.329	0
1	832278317	0.33	0
1	837408668	0.331	0
1	842549760	0.332	0
1	847700880	0.333	0
1	852889532	0.334	0
1	858104327	0.335	0
1	863333414	0.336	0
1	868592929	0.337	0
1	873882934	0.338	0
1	879183557	0.339	0
1	884496035	0.34	0
1	889816321	0.341	0
1	895142631	0.342	0
1	900478087	0.343	0
1	905826076	0.344	0
1	911183927	0.345	0
1	916566092	0.346	0
1	921982850	0.347	0
1	927423654	0.348	0
1	932876117	0.349	0
1	938336445	0.35	0
1	943806963	0.351	0
1	949289824	0.352	0
1	954784597	0.353	0
1	960292153	0.354	0
1	965807578	0.355	0
1	971334463	0.356	0
1	976870005	0.357	0
1	982418548	0.358	0
1	987977106	0.359	0
1	993548299	0.36	0
1	999132022	0.361	0
1	1004729419	0.362	0
1	1010338765	0.363	0
1	1015965214	0.364	0
1	1021598522	0.365	0
1	1027242089	0.366	0
1	1032892984	0.367	0
1	1038552780	0.368	0
1	1044241010	0.369	0
1	1049938278	0.37	0
1	1055645260	0.371	0
1	1061363948	0.372	0
1	1067098760	0.373	0
1	1072850586	0.374	0
1	1078635842	0.375	0
1	1084437617	0.376	0
1	1090278646	0.377	0
1	1096148822	0.378	0
1	1102031931	0.379	0
1	1107938082	0.38	0
1	1113854831	0.381	0
1	1119783188	0.382	0
1	1125723095	0.383	0
1	1131680861	0.384	0
1	1137652398	0.385	0
1	1143635165	0.386	0
1	1149629246	0.387	0
1	1155638465	0.388	0
1	1161660663	0.389	0
1	1167692084	0.39	0
1	1173731437	0.391	0
1	1179779804	0.392	0
1	1185842156	0.393	0
1	1191923021	0.394	0
1	1198015861	0.395	0
1	1204131997	0.396	0
1	1210267989	0.397	0
1	1216420434	0.398	0
1	1222601943	0.399	0
1	1228806871	0.4	0
1	1235021092	0.401	0
1	1241263242	0.402	0
1	1247521738	0.403	0
1	1253795343	0.404	0
1	1260075213	0.405	0
1	1266364474	0.406	0
1	1272667058	0.407	0
1	1278984012	0.408	0
1	1285321650	0.409	0
1	1291674068	0.41	0
1	1298050271	0.411	0
1	1304439090	0.412	0
1	1310840564	0.413	0
1	1317258855	0.414	0
1	1323686257	0.415	0
1	1330120885	0.416	0
1	1336565990	0.417	0
1	1343034906	0.418	0
1	1349530029	0.419	0
1	1356040401	0.42	0
1	1362559056	0.421	0
1	1369092043	0.422	0
1	1375636932	0.423	0
2	2809	0.001	0
2	14946	0.002	0
2	37928	0.003	0
2	70572	0.004	0
2	111404	0.005	0
2	159293	0.006	0
2	214797	0.007	0
2	282420	0.008	0
2	360392	0.009	0
2	448747	0.01	0
2	555317	0.011	0
2	693305	0.012	0
2	843351	0.013	0
2	1001368	0.014	0
2	1198072	0.015	0
2	1412949	0.016	0
2	1641378	0.017	0
2	1882037	0.018	0
2	2141952	0.019	0
2	2411663	0.02	0
2	2693467	0.021	0
2	2985530	0.022	0
2	3298918	0.023	0
2	3639059	0.024	0
2	3989845	0.025	0
2	4348434	0.026	0
2	4724723	0.027	0
2	5109732	0.028	0
2	5504716	0.029	0
2	5914809	0.03	0
2	6337015	0.031	0
2	6768001	0.032	0
2	7223793	0.033	0
2	7695085	0.034	0
2	8188240	0.035	0
2	8711243	0.036	0
2	9243822	0.037	0
2	9785598	0.038	0
2	10336316	0.039	0
2	10896396	0.04	0
2	11476322	0.041	0
2	12066732	0.042	0
2	12672933	0.043	0
2	13310155	0.044	0
2	13960881	0.045	0
2	14627181	0.046	0
2	15302895	0.047	0
2	15987859	0.048	0
2	16678200	0.049	0
2	17380289	0.05	0
2	18093206	0.051	0
2	18822333	0.052	0
2	19561088	0.053	0
2	20310639	0.054	0
2	21070215	0.055	0
2	21839681	0.056	0
2	22616817	0.057	0
2	23401595	0.058	0
2	24201640	0.059	0
2	25020674	0.06	0
2	25861250	0.061	0
2	26718929	0.062	0
2	27589749	0.063	0
2	28473514	0.064	0
2	29366777	0.065	0
2	30270475	0.066	0
2	31183864	0.067	0
2	32113526	0.068	0
2	33082940	0.069	0
2	34061443	0.07	0
2	35058168	0.071	0
2	36087472	0.072	0
2	37144512	0.073	0
2	38216829	0.074	0
2	39320029	0.075	0
2	40433758	0.076	0
2	41575097	0.077	0
2	42733446	0.078	0
2	43903299	0.079	0
2	45094501	0.08	0
2	46301219	0.081	0
2	47516878	0.082	0
2	48747327	0.083	0
2	49995472	0.084	0
2	51255088	0.085	0
2	52524348	0.086	0
2	53809880	0.087	0
2	55114860	0.088	0
2	56459108	0.089	0
2	57825528	0.09	0
2	59227354	0.091	0
2	60680900	0.092	0
2	62156068	0.093	0
2	63639887	0.094	0
2	65132773	0.095	0
2	66635464	0.096	0
2	68150273	0.097	0
2	69679762	0.098	0
2	71237880	0.099	0
2	72820744	0.1	0
2	74416958	0.101	0
2	76024519	0.102	0
2	77641102	0.103	0
2	79272483	0.104	0
2	80921062	0.105	0
2	82585476	0.106	0
2	84265582	0.107	0
2	85954265	0.108	0
2	87675586	0.109	0
2	89417410	0.11	0
2	91166297	0.111	0
2	92928714	0.112	0
2	94700790	0.113	0
2	96479640	0.114	0
2	98271171	0.115	0
2	100078232	0.116	0
2	101892680	0.117	0
2	103713027	0.118	0
2	105541562	0.119	0
2	107379746	0.12	0
2	109234031	0.121	0
2	111101795	0.122	0
2	112977199	0.123	0
2	114866170	0.124	0
2	116765051	0.125	0
2	118676802	0.126	0
2	120614663	0.127	0
2	122564682	0.128	0
2	124520449	0.129	0
2	126490041	0.13	0
2	128472508	0.131	0
2	130463619	0.132	0
2	132466646	0.133	0
2	134481570	0.134	0
2	136506258	0.135	0
2	138539790	0.136	0
2	140584271	0.137	0
2	142638332	0.138	0
2	144712286	0.139	0
2	146819464	0.14	0
2	148947684	0.141	0
2	151086182	0.142	0
2	153238828	0.143	0
2	155404245	0.144	0
2	157587017	0.145	0
2	159808496	0.146	0
2	162060281	0.147	0
2	164332550	0.148	0
2	166616039	0.149	0
2	168911411	0.15	0
2	171222623	0.151	0
2	173542908	0.152	0
2	175872738	0.153	0
2	178212708	0.154	0
2	180561700	0.155	0
2	182923801	0.156	0
2	185297171	0.157	0
2	187682455	0.158	0
2	190081926	0.159	0
2	192500302	0.16	0
2	194932092	0.161	0
2	197375810	0.162	0
2	199838387	0.163	0
2	202311237	0.164	0
2	204795398	0.165	0
2	207288901	0.166	0
2	209795116	0.167	0
2	212318234	0.168	0
2	214853411	0.169	0
2	217405630	0.17	0
2	219967440	0.171	0
2	222539154	0.172	0
2	225131904	0.173	0
2	227759906	0.174	0
2	230397892	0.175	0
2	233046470	0.176	0
2	235708283	0.177	0
2	238380856	0.178	0
2	241086914	0.179	0
2	243812610	0.18	0
2	246554430	0.181	0
2	249310931	0.182	0
2	252079824	0.183	0
2	254861082	0.184	0
2	257653581	0.185	0
2	260451491	0.186	0
2	263256259	0.187	0
2	266106479	0.188	0
2	268977663	0.189	0
2	271856418	0.19	0
2	274742052	0.191	0
2	277635953	0.192	0
2	280541011	0.193	0
2	283463436	0.194	0
2	286400665	0.195	0
2	289346791	0.196	0
2	292301485	0.197	0
2	295273536	0.198	0
2	298287665	0.199	0
2	301326539	0.2	0
2	304375764	0.201	0
2	307434194	0.202	0
2	310509198	0.203	0
2	313617382	0.204	0
2	316767804	0.205	0
2	319935927	0.206	0
2	323121705	0.207	0
2	326326110	0.208	0
2	329540437	0.209	0
2	332761563	0.21	0
2	335992624	0.211	0
2	339239775	0.212	0
2	342510614	0.213	0
2	345800122	0.214	0
2	349098595	0.215	0
2	352406201	0.216	0
2	355742637	0.217	0
2	359106522	0.218	0
2	362480346	0.219	0
2	365864612	0.22	0
2	369263784	0.221	0
2	372670004	0.222	0
2	376085862	0.223	0
2	379518326	0.224	0
2	382962872	0.225	0
2	386415553	0.226	0
2	389879091	0.227	0
2	393351599	0.228	0
2	396841819	0.229	0
2	400340705	0.23	0
2	403851646	0.231	0
2	407372933	0.232	0
2	410919057	0.233	0
2	414495283	0.234	0
2	418121518	0.235	0
2	421764659	0.236	0
2	425419452	0.237	0
2	429082446	0.238	0
2	432752714	0.239	0
2	436431238	0.24	0
2	440119707	0.241	0
2	443830633	0.242	0
2	447552549	0.243	0
2	451283716	0.244	0
2	455037697	0.245	0
2	458839433	0.246	0
2	462649940	0.247	0
2	466470705	0.248	0
2	470313310	0.249	0
2	474174378	0.25	0
2	478047655	0.251	0
2	481933943	0.252	0
2	485829480	0.253	0
2	489734309	0.254	0
2	493647852	0.255	0
2	497571431	0.256	0
2	501503742	0.257	0
2	505446082	0.258	0
2	509395369	0.259	0
2	513353403	0.26	0
2	517321275	0.261	0
2	521299849	0.262	0
2	525302423	0.263	0
2	529315640	0.264	0
2	533337580	0.265	0
2	537387232	0.266	0
2	541475140	0.267	0
2	545571093	0.268	0
2	549678963	0.269	0
2	553800342	0.27	0
2	557934146	0.271	0
2	562104051	0.272	0
2	566299354	0.273	0
2	570509678	0.274	0
2	574758448	0.275	0
2	579019641	0.276	0
2	583289499	0.277	0
2	587569423	0.278	0
2	591862060	0.279	0
2	596164561	0.28	0
2	600481139	0.281	0
2	604809310	0.282	0
2	609162140	0.283	0
2	613545574	0.284	0
2	617942769	0.285	0
2	622355804	0.286	0
2	626775292	0.287	0
2	631217436	0.288	0
2	635685920	0.289	0
2	640169602	0.29	0
2	644666564	0.291	0
2	649177868	0.292	0
2	653699789	0.293	0
2	658231317	0.294	0
2	662790384	0.295	0
2	667360534	0.296	0
2	671942965	0.297	0
2	676540657	0.298	0
2	681160403	0.299	0
2	685787812	0.3	0
2	690421697	0.301	0
2	695068272	0.302	0
2	699748188	0.303	0
2	704457183	0.304	0
2	709188845	0.305	0
2	713937142	0.306	0
2	718700905	0.307	0
2	723477020	0.308	0
2	728259874	0.309	0
2	733064834	0.31	0
2	737897374	0.311	0
2	742738495	0.312	0
2	747588449	0.313	0
2	752455816	0.314	0
2	757336459	0.315	0
2	762227903	0.316	0
2	767129530	0.317	0
2	772039155	0.318	0
2	776957251	0.319	0
2	781885475	0.32	0
2	786836671	0.321	0
2	791821343	0.322	0
2	796822912	0.323	0
2	801841432	0.324	0
2	806874073	0.325	0
2	811930149	0.326	0
2	816997152	0.327	0
2	822074878	0.328	0
2	827162803	0.329	0
2	832278318	0.33	0
2	837408669	0.331	0
2	842549761	0.332	0
2	847700881	0.333	0
2	852889533	0.334	0
2	858104328	0.335	0
2	863333415	0.336	0
2	868592930	0.337	0
2	873882935	0.338	0
2	879183558	0.339	0
2	884496036	0.34	0
2	889816322	0.341	0
2	895142632	0.342	0
2	900478088	0.343	0
2	905826077	0.344	0
2	911183928	0.345	0
2	916566093	0.346	0
2	921982851	0.347	0
2	927423655	0.348	0
2	932876118	0.349	0
2	938336446	0.35	0
2	943806964	0.351	0
2	949289825	0.352	0
2	954784598	0.353	0
2	960292154	0.354	0
2	965807579	0.355	0
2	971334464	0.356	0
2	976870006	0.357	0
2	982418549	0.358	0
2	987977107	0.359	0
2	993548300	0.36	0
2	999132023	0.361	0
2	1004729420	0.362	0
2	1010338766	0.363	0
2	1015965215	0.364	0
2	1021598523	0.365	0
2	1027242090	0.366	0
2	1032892985	0.367	0
2	1038552781	0.368	0
2	1044241011	0.369	0
2	1049938279	0.37	0
2	1055645261	0.371	0
2	1061363949	0.372	0
2	1067098761	0.373	0
2	1072850587	0.374	0
2	1078635843	0.375	0
2	1084437618	0.376	0
2	1090278647	0.377	0
2	1096148823	0.378	0
2	1102031932	0.379	0
2	1107938083	0.38	0
2	1113854832	0.381	0
2	1119783189	0.382	0
2	1125723096	0.383	0
2	1131680862	0.384	0
2	1137652399	0.385	0
2	1143635166	0.386	0
2	1149629247	0.387	0
2	1155638466	0.388	0
2	1161660664	0.389	0
2	1167692085	0.39	0
2	1173731438	0.391	0
2	1179779805	0.392	0
2	1185842157	0.393	0
2	1191923022	0.394	0
2	1198015862	0.395	0
2	1204131998	0.396	0
2	1210267990	0.397	0
2	1216420435	0.398	0
2	1222601944	0.399	0
2	1228806872	0.4	0
2	1235021093	0.401	0
2	1241263243	0.402	0
2	1247521739	0.403	0
2	1253795344	0.404	0
2	1260075214	0.405	0
2	1266364475	0.406	0
2	1272667059	0.407	0
2	1278984013	0.408	0
2	1285321651	0.409	0
2	1291674069	0.41	0
2	1298050272	0.411	0
2	1304439091	0.412	0
2	1310840565	0.413	0
2	1317258856	0.414	0
2	1323686258	0.415	0
2	1330120886	0.416	0
2	1336565991	0.417	0
2	1343034907	0.418	0
2	1349530030	0.419	0
2	1356040402	0.42	0
2	1362559057	0.421	0
2	1369092044	0.422	0
2	1375636933	0.423	0
3	2810	0.001	0
3	14947	0.002	0
3	37929	0.003	0
3	70573	0.004	0
3	111405	0.005	0
3	159294	0.006	0
3	214798	0.007	0
3	282421	0.008	0
3	360393	0.009	0
3	448748	0.01	0
3	555318	0.011	0
3	693306	0.012	0
3	843352	0.013	0
3	1001369	0.014	0
3	1198073	0.015	0
3	1412950	0.016	0
3	1641379	0.017	0
3	1882038	0.018	0
3	2141953	0.019	0
3	2411664	0.02	0
3	2693468	0.021	0
3	2985531	0.022	0
3	3298919	0.023	0
3	3639060	0.024	0
3	3989846	0.025	0
3	4348435	0.026	0
3	4724724	0.027	0
3	5109733	0.028	0
3	5504717	0.029	0
3	5914810	0.03	0
3	6337016	0.031	0
3	6768002	0.032	0
3	7223794	0.033	0
3	7695086	0.034	0
3	8188241	0.035	0
3	8711244	0.036	0
3	9243823	0.037	0
3	9785599	0.038	0
3	10336317	0.039	0
3	10896397	0.04	0
3	11476323	0.041	0
3	12066733	0.042	0
3	12672934	0.043	0
3	13310156	0.044	0
3	13960882	0.045	0
3	14627182	0.046	0
3	15302896	0.047	0
3	15987860	0.048	0
3	16678201	0.049	0
3	17380290	0.05	0
3	18093207	0.051	0
3	18822334	0.052	0
3	19561089	0.053	0
3	20310640	0.054	0
3	21070216	0.055	0
3	21839682	0.056	0
3	22616818	0.057	0
3	23401596	0.058	0
3	24201641	0.059	0
3	25020675	0.06	0
3	25861251	0.061	0
3	26718930	0.062	0
3	27589750	0.063	0
3	28473515	0.064	0
3	29366778	0.065	0
3	30270476	0.066	0
3	31183865	0.067	0
3	32113527	0.068	0
3	33082941	0.069	0
3	34061444	0.07	0
3	35058169	0.071	0
3	36087473	0.072	0
3	37144513	0.073	0
3	38216830	0.074	0
3	39320030	0.075	0
3	40433759	0.076	0
3	41575098	0.077	0
3	42733447	0.078	0
3	43903300	0.079	0
3	45094502	0.08	0
3	46301220	0.081	0
3	47516879	0.082	0
3	48747328	0.083	0
3	49995473	0.084	0
3	51255089	0.085	0
3	52524349	0.086	0
3	53809881	0.087	0
3	55114861	0.088	0
3	56459109	0.089	0
3	57825529	0.09	0
3	59227355	0.091	0
3	60680901	0.092	0
3	62156069	0.093	0
3	63639888	0.094	0
3	65132774	0.095	0
3	66635465	0.096	0
3	68150274	0.097	0
3	69679763	0.098	0
3	71237881	0.099	0
3	72820745	0.1	0
3	74416959	0.101	0
3	76024520	0.102	0
3	77641103	0.103	0
3	79272484	0.104	0
3	80921063	0.105	0
3	82585477	0.106	0
3	84265583	0.107	0
3	85954266	0.108	0
3	87675587	0.109	0
3	89417411	0.11	0
3	91166298	0.111	0
3	92928715	0.112	0
3	94700791	0.113	0
3	96479641	0.114	0
3	98271172	0.115	0
3	100078233	0.116	0
3	101892681	0.117	0
3	103713028	0.118	0
3	105541563	0.119	0
3	107379747	0.12	0
3	109234032	0.121	0
3	111101796	0.122	0
3	112977200	0.123	0
3	114866171	0.124	0
3	116765052	0.125	0
3	118676803	0.126	0
3	120614664	0.127	0
3	122564683	0.128	0
3	124520450	0.129	0
3	126490042	0.13	0
3	128472509	0.131	0
3	130463620	0.132	0
3	132466647	0.133	0
3	134481571	0.134	0
3	136506259	0.135	0
3	138539791	0.136	0
3	140584272	0.137	0
3	142638333	0.138	0
3	144712287	0.139	0
3	146819465	0.14	0
3	148947685	0.141	0
3	151086183	0.142	0
3	153238829	0.143	0
3	155404246	0.144	0
3	157587018	0.145	0
3	159808497	0.146	0
3	162060282	0.147	0
3	164332551	0.148	0
3	166616040	0.149	0
3	168911412	0.15	0
3	171222624	0.151	0
3	173542909	0.152	0
3	175872739	0.153	0
3	178212709	0.154	0
3	180561701	0.155	0
3	182923802	0.156	0
3	185297172	0.157	0
3	187682456	0.158	0
3	190081927	0.159	0
3	192500303	0.16	0
3	194932093	0.161	0
3	197375811	0.162	0
3	199838388	0.163	0
3	202311238	0.164	0
3	204795399	0.165	0
3	207288902	0.166	0
3	209795117	0.167	0
3	212318235	0.168	0
3	214853412	0.169	0
3	217405631	0.17	0
3	219967441	0.171	0
3	222539155	0.172	0
3	225131905	0.173	0
3	227759907	0.174	0
3	230397893	0.175	0
3	233046471	0.176	0
3	235708284	0.177	0
3	238380857	0.178	0
3	241086915	0.179	0
3	243812611	0.18	0
3	246554431	0.181	0
3	249310932	0.182	0
3	252079825	0.183	0
3	254861083	0.184	0
3	257653582	0.185	0
3	260451492	0.186	0
3	263256260	0.187	0
3	266106480	0.188	0
3	268977664	0.189	0
3	271856419	0.19	0
3	274742053	0.191	0
3	277635954	0.192	0
3	280541012	0.193	0
3	283463437	0.194	0
3	286400666	0.195	0
3	289346792	0.196	0
3	292301486	0.197	0
3	295273537	0.198	0
3	298287666	0.199	0
3	301326540	0.2	0
3	304375765	0.201	0
3	307434195	0.202	0
3	310509199	0.203	0
3	313617383	0.204	0
3	316767805	0.205	0
3	319935928	0.206	0
3	323121706	0.207	0
3	326326111	0.208	0
3	329540438	0.209	0
3	332761564	0.21	0
3	335992625	0.211	0
3	339239776	0.212	0
3	342510615	0.213	0
3	345800123	0.214	0
3	349098596	0.215	0
3	352406202	0.216	0
3	355742638	0.217	0
3	359106523	0.218	0
3	362480347	0.219	0
3	365864613	0.22	0
3	369263785	0.221	0
3	372670005	0.222	0
3	376085863	0.223	0
3	379518327	0.224	0
3	382962873	0.225	0
3	386415554	0.226	0
3	389879092	0.227	0
3	393351600	0.228	0
3	396841820	0.229	0
3	400340706	0.23	0
3	403851647	0.231	0
3	407372934	0.232	0
3	410919058	0.233	0
3	414495284	0.234	0
3	418121519	0.235	0
3	421764660	0.236	0
3	425419453	0.237	0
3	429082447	0.238	0
3	432752715	0.239	0
3	436431239	0.24	0
3	440119708	0.241	0
3	443830634	0.242	0
3	447552550	0.243	0
3	451283717	0.244	0
3	455037698	0.245	0
3	458839434	0.246	0
3	462649941	0.247	0
3	466470706	0.248	0
3	470313311	0.249	0
3	474174379	0.25	0
3	478047656	0.251	0
3	481933944	0.252	0
3	485829481	0.253	0
3	489734310	0.254	0
3	493647853	0.255	0
3	497571432	0.256	0
3	501503743	0.257	0
3	505446083	0.258	0
3	509395370	0.259	0
3	513353404	0.26	0
3	517321276	0.261	0
3	521299850	0.262	0
3	525302424	0.263	0
3	529315641	0.264	0
3	533337581	0.265	0
3	537387233	0.266	0
3	541475141	0.267	0
3	545571094	0.268	0
3	549678964	0.269	0
3	553800343	0.27	0
3	557934147	0.271	0
3	562104052	0.272	0
3	566299355	0.273	0
3	570509679	0.274	0
3	574758449	0.275	0
3	579019642	0.276	0
3	583289500	0.277	0
3	587569424	0.278	0
3	591862061	0.279	0
3	596164562	0.28	0
3	600481140	0.281	0
3	604809311	0.282	0
3	609162141	0.283	0
3	613545575	0.284	0
3	617942770	0.285	0
3	622355805	0.286	0
3	626775293	0.287	0
3	631217437	0.288	0
3	635685921	0.289	0
3	640169603	0.29	0
3	644666565	0.291	0
3	649177869	0.292	0
3	653699790	0.293	0
3	658231318	0.294	0
3	662790385	0.295	0
3	667360535	0.296	0
3	671942966	0.297	0
3	676540658	0.298	0
3	681160404	0.299	0
3	685787813	0.3	0
3	690421698	0.301	0
3	695068273	0.302	0
3	699748189	0.303	0
3	704457184	0.304	0
3	709188846	0.305	0
3	713937143	0.306	0
3	718700906	0.307	0
3	723477021	0.308	0
3	728259875	0.309	0
3	733064835	0.31	0
3	737897375	0.311	0
3	742738496	0.312	0
3	747588450	0.313	0
3	752455817	0.314	0
3	757336460	0.315	0
3	762227904	0.316	0
3	767129531	0.317	0
3	772039156	0.318	0
3	776957252	0.319	0
3	781885476	0.32	0
3	786836672	0.321	0
3	791821344	0.322	0
3	796822913	0.323	0
3	801841433	0.324	0
3	806874074	0.325	0
3	811930150	0.326	0
3	816997153	0.327	0
3	822074879	0.328	0
3	827162804	0.329	0
3	832278319	0.33	0
3	837408670	0.331	0
3	842549762	0.332	0
3	847700882	0.333	0
3	852889534	0.334	0
3	858104329	0.335	0
3	863333416	0.336	0
3	868592931	0.337	0
3	873882936	0.338	0
3	879183559	0.339	0
3	884496037	0.34	0
3	889816323	0.341	0
3	895142633	0.342	0
3	900478089	0.343	0
3	905826078	0.344	0
3	911183929	0.345	0
3	916566094	0.346	0
3	921982852	0.347	0
3	927423656	0.348	0
3	932876119	0.349	0
3	938336447	0.35	0
3	943806965	0.351	0
3	949289826	0.352	0
3	954784599	0.353	0
3	960292155	0.354	0
3	965807580	0.355	0
3	971334465	0.356	0
3	976870007	0.357	0
3	982418550	0.358	0
3	987977108	0.359	0
3	993548301	0.36	0
3	999132024	0.361	0
3	1004729421	0.362	0
3	1010338767	0.363	0
3	1015965216	0.364	0
3	1021598524	0.365	0
3	1027242091	0.366	0
3	1032892986	0.367	0
3	1038552782	0.368	0
3	1044241012	0.369	0
3	1049938280	0.37	0
3	1055645262	0.371	0
3	1061363950	0.372	0
3	1067098762	0.373	0
3	1072850588	0.374	0
3	1078635844	0.375	0
3	1084437619	0.376	0
3	1090278648	0.377	0
3	1096148824	0.378	0
3	1102031933	0.379	0
3	1107938084	0.38	0
3	1113854833	0.381	0
3	1119783190	0.382	0
3	1125723097	0.383	0
3	1131680863	0.384	0
3	1137652400	0.385	0
3	1143635167	0.386	0
3	1149629248	0.387	0
3	1155638467	0.388	0
3	1161660665	0.389	0
3	1167692086	0.39	0
3	1173731439	0.391	0
3	1179779806	0.392	0
3	1185842158	0.393	0
3	1191923023	0.394	0
3	1198015863	0.395	0
3	1204131999	0.396	0
3	1210267991	0.397	0
3	1216420436	0.398	0
3	1222601945	0.399	0
3	1228806873	0.4	0
3	1235021094	0.401	0
3	1241263244	0.402	0
3	1247521740	0.403	0
3	1253795345	0.404	0
3	1260075215	0.405	0
3	1266364476	0.406	0
3	1272667060	0.407	0
3	1278984014	0.408	0
3	1285321652	0.409	0
3	1291674070	0.41	0
3	1298050273	0.411	0
3	1304439092	0.412	0
3	1310840566	0.413	0
3	1317258857	0.414	0
3	1323686259	0.415	0
3	1330120887	0.416	0
3	1336565992	0.417	0
3	1343034908	0.418	0
3	1349530031	0.419	0
3	1356040403	0.42	0
3	1362559058	0.421	0
3	1369092045	0.422	0
3	1375636934	0.423	0
4	2811	0.001	0
4	14948	0.002	0
4	37930	0.003	0
4	70574	0.004	0
4	111406	0.005	0
4	159295	0.006	0
4	214799	0.007	0
4	282422	0.008	0
4	360394	0.009	0
4	448749	0.01	0
4	555319	0.011	0
4	693307	0.012	0
4	843353	0.013	0
4	1001370	0.014	0
4	1198074	0.015	0
4	1412951	0.016	0
4	1641380	0.017	0
4	1882039	0.018	0
4	2141954	0.019	0
4	2411665	0.02	0
4	2693469	0.021	0
4	2985532	0.022	0
4	3298920	0.023	0
4	3639061	0.024	0
4	3989847	0.025	0
4	4348436	0.026	0
4	4724725	0.027	0
4	5109734	0.028	0
4	5504718	0.029	0
4	5914811	0.03	0
4	6337017	0.031	0
4	6768003	0.032	0
4	7223795	0.033	0
4	7695087	0.034	0
4	8188242	0.035	0
4	8711245	0.036	0
4	9243824	0.037	0
4	9785600	0.038	0
4	10336318	0.039	0
4	10896398	0.04	0
4	11476324	0.041	0
4	12066734	0.042	0
4	12672935	0.043	0
4	13310157	0.044	0
4	13960883	0.045	0
4	14627183	0.046	0
4	15302897	0.047	0
4	15987861	0.048	0
4	16678202	0.049	0
4	17380291	0.05	0
4	18093208	0.051	0
4	18822335	0.052	0
4	19561090	0.053	0
4	20310641	0.054	0
4	21070217	0.055	0
4	21839683	0.056	0
4	22616819	0.057	0
4	23401597	0.058	0
4	24201642	0.059	0
4	25020676	0.06	0
4	25861252	0.061	0
4	26718931	0.062	0
4	27589751	0.063	0
4	28473516	0.064	0
4	29366779	0.065	0
4	30270477	0.066	0
4	31183866	0.067	0
4	32113528	0.068	0
4	33082942	0.069	0
4	34061445	0.07	0
4	35058170	0.071	0
4	36087474	0.072	0
4	37144514	0.073	0
4	38216831	0.074	0
4	39320031	0.075	0
4	40433760	0.076	0
4	41575099	0.077	0
4	42733448	0.078	0
4	43903301	0.079	0
4	45094503	0.08	0
4	46301221	0.081	0
4	47516880	0.082	0
4	48747329	0.083	0
4	49995474	0.084	0
4	51255090	0.085	0
4	52524350	0.086	0
4	53809882	0.087	0
4	55114862	0.088	0
4	56459110	0.089	0
4	57825530	0.09	0
4	59227356	0.091	0
4	60680902	0.092	0
4	62156070	0.093	0
4	63639889	0.094	0
4	65132775	0.095	0
4	66635466	0.096	0
4	68150275	0.097	0
4	69679764	0.098	0
4	71237882	0.099	0
4	72820746	0.1	0
4	74416960	0.101	0
4	76024521	0.102	0
4	77641104	0.103	0
4	79272485	0.104	0
4	80921064	0.105	0
4	82585478	0.106	0
4	84265584	0.107	0
4	85954267	0.108	0
4	87675588	0.109	0
4	89417412	0.11	0
4	91166299	0.111	0
4	92928716	0.112	0
4	94700792	0.113	0
4	96479642	0.114	0
4	98271173	0.115	0
4	100078234	0.116	0
4	101892682	0.117	0
4	103713029	0.118	0
4	105541564	0.119	0
4	107379748	0.12	0
4	109234033	0.121	0
4	111101797	0.122	0
4	112977201	0.123	0
4	114866172	0.124	0
4	116765053	0.125	0
4	118676804	0.126	0
4	120614665	0.127	0
4	122564684	0.128	0
4	124520451	0.129	0
4	126490043	0.13	0
4	128472510	0.131	0
4	130463621	0.132	0
4	132466648	0.133	0
4	134481572	0.134	0
4	136506260	0.135	0
4	138539792	0.136	0
4	140584273	0.137	0
4	142638334	0.138	0
4	144712288	0.139	0
4	146819466	0.14	0
4	148947686	0.141	0
4	151086184	0.142	0
4	153238830	0.143	0
4	155404247	0.144	0
4	157587019	0.145	0
4	159808498	0.146	0
4	162060283	0.147	0
4	164332552	0.148	0
4	166616041	0.149	0
4	168911413	0.15	0
4	171222625	0.151	0
4	173542910	0.152	0
4	175872740	0.153	0
4	178212710	0.154	0
4	180561702	0.155	0
4	182923803	0.156	0
4	185297173	0.157	0
4	187682457	0.158	0
4	190081928	0.159	0
4	192500304	0.16	0
4	194932094	0.161	0
4	197375812	0.162	0
4	199838389	0.163	0
4	202311239	0.164	0
4	204795400	0.165	0
4	207288903	0.166	0
4	209795118	0.167	0
4	212318236	0.168	0
4	214853413	0.169	0
4	217405632	0.17	0
4	219967442	0.171	0
4	222539156	0.172	0
4	225131906	0.173	0
4	227759908	0.174	0
4	230397894	0.175	0
4	233046472	0.176	0
4	235708285	0.177	0
4	238380858	0.178	0
4	241086916	0.179	0
4	243812612	0.18	0
4	246554432	0.181	0
4	249310933	0.182	0
4	252079826	0.183	0
4	254861084	0.184	0
4	257653583	0.185	0
4	260451493	0.186	0
4	263256261	0.187	0
4	266106481	0.188	0
4	268977665	0.189	0
4	271856420	0.19	0
4	274742054	0.191	0
4	277635955	0.192	0
4	280541013	0.193	0
4	283463438	0.194	0
4	286400667	0.195	0
4	289346793	0.196	0
4	292301487	0.197	0
4	295273538	0.198	0
4	298287667	0.199	0
4	301326541	0.2	0
4	304375766	0.201	0
4	307434196	0.202	0
4	310509200	0.203	0
4	313617384	0.204	0
4	316767806	0.205	0
4	319935929	0.206	0
4	323121707	0.207	0
4	326326112	0.208	0
4	329540439	0.209	0
4	332761565	0.21	0
4	335992626	0.211	0
4	339239777	0.212	0
4	342510616	0.213	0
4	345800124	0.214	0
4	349098597	0.215	0
4	352406203	0.216	0
4	355742639	0.217	0
4	359106524	0.218	0
4	362480348	0.219	0
4	365864614	0.22	0
4	369263786	0.221	0
4	372670006	0.222	0
4	376085864	0.223	0
4	379518328	0.224	0
4	382962874	0.225	0
4	386415555	0.226	0
4	389879093	0.227	0
4	393351601	0.228	0
4	396841821	0.229	0
4	400340707	0.23	0
4	403851648	0.231	0
4	407372935	0.232	0
4	410919059	0.233	0
4	414495285	0.234	0
4	418121520	0.235	0
4	421764661	0.236	0
4	425419454	0.237	0
4	429082448	0.238	0
4	432752716	0.239	0
4	436431240	0.24	0
4	440119709	0.241	0
4	443830635	0.242	0
4	447552551	0.243	0
4	451283718	0.244	0
4	455037699	0.245	0
4	458839435	0.246	0
4	462649942	0.247	0
4	466470707	0.248	0
4	470313312	0.249	0
4	474174380	0.25	0
4	478047657	0.251	0
4	481933945	0.252	0
4	485829482	0.253	0
4	489734311	0.254	0
4	493647854	0.255	0
4	497571433	0.256	0
4	501503744	0.257	0
4	505446084	0.258	0
4	509395371	0.259	0
4	513353405	0.26	0
4	517321277	0.261	0
4	521299851	0.262	0
4	525302425	0.263	0
4	529315642	0.264	0
4	533337582	0.265	0
4	537387234	0.266	0
4	541475142	0.267	0
4	545571095	0.268	0
4	549678965	0.269	0
4	553800344	0.27	0
4	557934148	0.271	0
4	562104053	0.272	0
4	566299356	0.273	0
4	570509680	0.274	0
4	574758450	0.275	0
4	579019643	0.276	0
4	583289501	0.277	0
4	587569425	0.278	0
4	591862062	0.279	0
4	596164563	0.28	0
4	600481141	0.281	0
4	604809312	0.282	0
4	609162142	0.283	0
4	613545576	0.284	0
4	617942771	0.285	0
4	622355806	0.286	0
4	626775294	0.287	0
4	631217438	0.288	0
4	635685922	0.289	0
4	640169604	0.29	0
4	644666566	0.291	0
4	649177870	0.292	0
4	653699791	0.293	0
4	658231319	0.294	0
4	662790386	0.295	0
4	667360536	0.296	0
4	671942967	0.297	0
4	676540659	0.298	0
4	681160405	0.299	0
4	685787814	0.3	0
4	690421699	0.301	0
4	695068274	0.302	0
4	699748190	0.303	0
4	704457185	0.304	0
4	709188847	0.305	0
4	713937144	0.306	0
4	718700907	0.307	0
4	723477022	0.308	0
4	728259876	0.309	0
4	733064836	0.31	0
4	737897376	0.311	0
4	742738497	0.312	0
4	747588451	0.313	0
4	752455818	0.314	0
4	757336461	0.315	0
4	762227905	0.316	0
4	767129532	0.317	0
4	772039157	0.318	0
4	776957253	0.319	0
4	781885477	0.32	0
4	786836673	0.321	0
4	791821345	0.322	0
4	796822914	0.323	0
4	801841434	0.324	0
4	806874075	0.325	0
4	811930151	0.326	0
4	816997154	0.327	0
4	822074880	0.328	0
4	827162805	0.329	0
4	832278320	0.33	0
4	837408671	0.331	0
4	842549763	0.332	0
4	847700883	0.333	0
4	852889535	0.334	0
4	858104330	0.335	0
4	863333417	0.336	0
4	868592932	0.337	0
4	873882937	0.338	0
4	879183560	0.339	0
4	884496038	0.34	0
4	889816324	0.341	0
4	895142634	0.342	0
4	900478090	0.343	0
4	905826079	0.344	0
4	911183930	0.345	0
4	916566095	0.346	0
4	921982853	0.347	0
4	927423657	0.348	0
4	932876120	0.349	0
4	938336448	0.35	0
4	943806966	0.351	0
4	949289827	0.352	0
4	954784600	0.353	0
4	960292156	0.354	0
4	965807581	0.355	0
4	971334466	0.356	0
4	976870008	0.357	0
4	982418551	0.358	0
4	987977109	0.359	0
4	993548302	0.36	0
4	999132025	0.361	0
4	1004729422	0.362	0
4	1010338768	0.363	0
4	1015965217	0.364	0
4	1021598525	0.365	0
4	1027242092	0.366	0
4	1032892987	0.367	0
4	1038552783	0.368	0
4	1044241013	0.369	0
4	1049938281	0.37	0
4	1055645263	0.371	0
4	1061363951	0.372	0
4	1067098763	0.373	0
4	1072850589	0.374	0
4	1078635845	0.375	0
4	1084437620	0.376	0
4	1090278649	0.377	0
4	1096148825	0.378	0
4	1102031934	0.379	0
4	1107938085	0.38	0
4	1113854834	0.381	0
4	1119783191	0.382	0
4	1125723098	0.383	0
4	1131680864	0.384	0
4	1137652401	0.385	0
4	1143635168	0.386	0
4	1149629249	0.387	0
4	1155638468	0.388	0
4	1161660666	0.389	0
4	1167692087	0.39	0
4	1173731440	0.391	0
4	1179779807	0.392	0
4	1185842159	0.393	0
4	1191923024	0.394	0
4	1198015864	0.395	0
4	1204132000	0.396	0
4	1210267992	0.397	0
4	1216420437	0.398	0
4	1222601946	0.399	0
4	1228806874	0.4	0
4	1235021095	0.401	0
4	1241263245	0.402	0
4	1247521741	0.403	0
4	1253795346	0.404	0
4	1260075216	0.405	0
4	1266364477	0.406	0
4	1272667061	0.407	0
4	1278984015	0.408	0
4	1285321653	0.409	0
4	1291674071	0.41	0
4	1298050274	0.411	0
4	1304439093	0.412	0
4	1310840567	0.413	0
4	1317258858	0.414	0
4	1323686260	0.415	0
4	1330120888	0.416	0
4	1336565993	0.417	0
4	1343034909	0.418	0
4	1349530032	0.419	0
4	1356040404	0.42	0
4	1362559059	0.421	0
4	1369092046	0.422	0
4	1375636935	0.423	0

