version 2
run General-0-20221121-08:10:49-20256
attr configname General
attr datetime 20221121-08:10:49
attr experiment General
attr inifile omnetpp.ini
attr iterationvars ""
attr iterationvarsf ""
attr measurement ""
attr network Network
attr processid 20256
attr repetition 0
attr replication #0
attr resultdir results
attr runnumber 0
attr seedset 0
param Network.NumOfToRs 5
param Network.NumOfAggregation 3
param Network.rack[*].number_of_hosts 50000
param Network.linedelay 0.2
param Network.tor[*].CacheSize 1000
param Network.agg[*].CacheSize 1000
param Network.controllerswitch.CacheSize 1000
param Network.tor[*].threshold 2
param Network.agg[*].threshold 2
param Network.controllerswitch.threshold 1
param Network.tor[*].Type 1001
param Network.agg[*].Type 1002
param Network.controllerswitch.Type 1003
param Network.rack[*].host[*].flow_appearance "\"\""
param Network.rack[*].host[*].flow_size "\"\""
param Network.policy_size "\"\""
param Network.cache_size "\"\""
param Network.propagation_time "\"\""
param Network.processing_time_on_data_packet_in_sw "\"\""
param Network.processing_time_on_data_packet_in_controller "\"\""
param Network.insertion_delay "\"\""
param Network.eviction_delay "\"\""
param Network.elephant_table_size "\"\""
param Network.flush_elephant_time "\"\""
param Network.check_for_elephant_time "\"\""
param Network.elephant_sample_rx "\"\""
param Network.bandwidth_elephant_threshold "\"\""
param Network.already_requested_threshold "\"\""
param Network.push_threshold_in_aggregation "\"\""
param Network.push_threshold_in_controller_switch "\"\""
param Network.cache_percentage "\"\""
param Network.eviction_sample_size "\"\""
param Network.inter_arrival_time_between_packets "\"\""
param Network.inter_arrival_time_between_flowlets "\"\""
param Network.inter_arrival_time_between_flows "\"\""
param Network.large_flow "\"\""
param Network.last_flow_id "\"0\""
param Network.last_flow_appearance "\"0\""
param Network.rack[*].last_flow_appearance "\"0\""

vector 0 Network.rack[0].hub flowlet_count ETV
vector 1 Network.rack[1].hub flowlet_count ETV
vector 2 Network.rack[2].hub flowlet_count ETV
vector 3 Network.rack[3].hub flowlet_count ETV
vector 4 Network.rack[4].hub flowlet_count ETV
0	721340	0.001	7959196168000
0	980761	0.002	4214813120000
0	1216002	0.003	1653374536000
0	1464490	0.004	277158256000
0	1709577	0.005	1830624176000
0	1948440	0.006	3391037248000
0	2193679	0.007	2041809912000
0	2448546	0.008	2648239880000
0	2703649	0.009	2624083568000
0	2963656	0.01	50603480000
0	3217647	0.011	37443320000
0	3464174	0.012	2040604792000
0	3712622	0.013	1823231648000
0	3958572	0.014	3602913448000
0	4205303	0.015	24408408000
0	4472447	0.016	102099752000
0	4740725	0.017	1862877840000
0	5017653	0.018	56832424000
0	5291505	0.019	3604676496000
0	5571257	0.02	61699112000
0	5884509	0.021	52580584000
0	6190391	0.022	32651000000
0	6501607	0.023	59562680000
0	6818198	0.024	1818393904000
0	7136982	0.025	1817548384000
0	7449844	0.026	1923729872000
0	7763183	0.027	1632351632000
0	8089668	0.028	1814552720000
0	8412587	0.029	3671950344000
0	8743738	0.03	1835499408000
0	9087265	0.031	240959768000
0	9439273	0.032	30147008000
0	9792856	0.033	852352864000
0	10152077	0.034	252164368000
0	10506631	0.035	1846920584000
0	10868229	0.036	2914405640000
0	11247028	0.037	836241664000
0	11625407	0.038	33372744000
0	12014063	0.039	834992696000
0	12397244	0.04	5208065776000
0	12782970	0.041	6269604024000
0	13189203	0.042	1824049912000
0	13603147	0.043	331257728000
0	14015302	0.044	829926552000
0	14436720	0.045	256590256000
0	14858332	0.046	833482720000
0	15281358	0.047	33389568000
0	15700810	0.048	28947272000
0	16123821	0.049	1628907264000
0	16559390	0.05	1824823632000
0	16989090	0.051	55933584000
0	17436307	0.052	2644034200000
0	17884331	0.053	5608112984000
0	18338850	0.054	87057616000
0	18802986	0.055	2624393600000
0	19273078	0.056	34147432000
0	19733296	0.057	5627181520000
0	20184354	0.058	3617335048000
0	20659694	0.059	44462224000
0	21159727	0.06	261025984000
0	21657336	0.061	277377312000
0	22168866	0.062	270195688000
0	22678691	0.063	1827450600000
0	23197308	0.064	77153192000
0	23727435	0.065	3448071248000
0	24254453	0.066	824897440000
0	24793888	0.067	1833163528000
0	25331669	0.068	56403840000
0	25886574	0.069	4428836600000
0	26473952	0.07	54359896000
0	27067768	0.071	254843848000
0	27658678	0.072	38098440000
0	28254087	0.073	4395987472000
0	28843341	0.074	848868304000
0	29432560	0.075	3403487656000
0	30025617	0.076	35285152000
0	30613756	0.077	2598118472000
0	31209097	0.078	39770304000
0	31814833	0.079	4406408280000
0	32429660	0.08	1824833856000
0	33054391	0.081	3612993520000
0	33678868	0.082	1817864984000
0	34311928	0.083	2098128000000
0	34935662	0.084	269390016000
0	35586775	0.085	3624779944000
0	36248279	0.086	3462939304000
0	36904207	0.087	3851954632000
0	37566788	0.088	319347272000
0	38219189	0.089	29283560000
0	38875395	0.09	4391720320000
0	39522049	0.091	249101016000
0	40185731	0.092	840555080000
0	40850050	0.093	1828460512000
0	41512002	0.094	1814272704000
0	42194703	0.095	27136120000
0	42860427	0.096	4405640896000
0	43538788	0.097	83542224000
0	44223196	0.098	3404672776000
0	44927099	0.099	267455216000
0	45641860	0.1	2852535440000
0	46363070	0.101	55845672000
0	47064764	0.102	1033874216000
0	47769025	0.103	845524912000
0	48468470	0.104	2670814504000
0	49143307	0.105	1625268776000
0	49838902	0.106	67029656000
0	50541763	0.107	3615992360000
0	51249004	0.108	332726976000
0	51963581	0.109	2626523112000
0	52701226	0.11	1836066632000
0	53435545	0.111	119688624000
0	54191716	0.112	43785800000
0	54940700	0.113	2612135120000
0	55717169	0.114	1043593088000
0	56484262	0.115	66849952000
0	57236408	0.116	844618608000
0	57984869	0.117	4416537408000
0	58722573	0.118	111132880000
0	59461088	0.119	1882506232000
0	60205254	0.12	3627409016000
0	60988231	0.121	6257928640000
0	61768032	0.122	840111624000
0	62553320	0.123	1842682768000
0	63346186	0.124	276483464000
0	64139121	0.125	825995624000
0	64936995	0.126	1260845392000
0	65750331	0.127	40085544000
0	66551704	0.128	831894264000
0	67374263	0.129	826910544000
0	68218994	0.13	2840750096000
0	69090063	0.131	4389917160000
0	69963529	0.132	61920600000
0	70819067	0.133	2615368384000
0	71668320	0.134	94787776000
0	72525416	0.135	317632704000
0	73396865	0.136	58554664000
0	74284809	0.137	36624008000
0	75190869	0.138	1843453808000
0	76096691	0.139	4629403616000
0	76996222	0.14	36634160000
0	77895909	0.141	1831035720000
0	78805851	0.142	32887720000
0	79718160	0.143	269302960000
0	80656456	0.144	264186480000
0	81578129	0.145	33458880000
0	82492816	0.146	3637012920000
0	83392292	0.147	1662328976000
0	84279029	0.148	3604768728000
0	85177387	0.149	1073190144000
0	86083727	0.15	2840558704000
0	87008201	0.151	296285320000
0	87941553	0.152	271648280000
0	88900269	0.153	857459016000
0	89837232	0.154	49039760000
0	90772656	0.155	7969097200000
0	91698841	0.156	5606671584000
0	92607632	0.157	1878836312000
0	93523201	0.158	2049012032000
0	94473229	0.159	1925361176000
0	95452448	0.16	1831964224000
0	96418520	0.161	1834975560000
0	97430875	0.162	848948624000
0	98435668	0.163	35160624000
0	99453372	0.164	52045728000
0	100448414	0.165	43858496000
0	101425591	0.166	31133928000
0	102419483	0.167	1838752384000
0	103416075	0.168	23419480000
0	104454054	0.169	1619329736000
0	105497972	0.17	1829299320000
0	106551389	0.171	3833566144000
0	107629137	0.172	2264885048000
0	108681997	0.173	261922800000
0	109747852	0.174	2031794896000
0	110822553	0.175	41149904000
0	111912372	0.176	3413613816000
0	113044493	0.177	290389048000
0	114166487	0.178	262613520000
0	115260743	0.179	127194680000
0	116353568	0.18	66889752000
0	117463738	0.181	1897880216000
0	118581723	0.182	5407216936000
0	119707795	0.183	1898792152000
0	120827125	0.184	1848496072000
0	121928661	0.185	848390272000
0	123036406	0.186	477010040000
0	124136833	0.187	1832336976000
0	125251250	0.188	40699472000
0	126349863	0.189	3421182008000
0	127456569	0.19	2624027912000
0	128574832	0.191	1851661096000
0	129702227	0.192	7975677696000
0	130827685	0.193	1842011240000
0	131961973	0.194	259095608000
0	133079407	0.195	2636464952000
0	134190709	0.196	2635009168000
0	135325942	0.197	829714360000
0	136443049	0.198	1897161968000
0	137532618	0.199	2039634008000
0	138633011	0.2	280367792000
0	139723107	0.201	4390590296000
0	140822076	0.202	270778240000
0	141934374	0.203	1618970328000
0	143041368	0.204	44546720000
0	144155736	0.205	4639874400000
0	145258348	0.206	3593313216000
0	146411257	0.207	2052128192000
0	147534629	0.208	1826269544000
0	148688184	0.209	2619530304000
0	149836222	0.21	55234216000
0	150996922	0.211	1107708696000
0	152206588	0.212	3877546848000
0	153396350	0.213	34055640000
0	154585261	0.214	291358504000
0	155773993	0.215	3633601328000
0	156975545	0.216	263670016000
0	158172529	0.217	1064819096000
0	159393001	0.218	278400016000
0	160640924	0.219	2604196512000
0	161856427	0.22	4457807160000
0	163037522	0.221	1893138848000
0	164201499	0.222	3619096064000
0	165399004	0.223	305751640000
0	166609004	0.224	55718056000
0	167818696	0.225	4391363688000
0	169025703	0.226	56262000000
0	170235774	0.227	247015240000
0	171445753	0.228	3850959992000
0	172664078	0.229	3606498616000
0	173878651	0.23	843165864000
0	175076138	0.231	6187858440000
0	176290372	0.232	2038770816000
0	177508512	0.233	42176240000
0	178727811	0.234	2120823816000
0	179952242	0.235	2837056488000
0	181209150	0.236	3629890976000
0	182430915	0.237	1845781512000
0	183629165	0.238	6175313888000
0	184814228	0.239	1843758520000
0	186014085	0.24	4389732304000
0	187218412	0.241	49967632000
0	188423556	0.242	2620977752000
0	189684331	0.243	3823212088000
0	190936936	0.244	1811417152000
0	192190045	0.245	1858785920000
0	193430745	0.246	4393534112000
0	194693131	0.247	54701304000
0	195929103	0.248	92089504000
0	197127654	0.249	44267344000
0	198328579	0.25	826042576000
0	199543860	0.251	1841943008000
0	200763205	0.252	2616445352000
0	201986270	0.253	2611214464000
0	203241494	0.254	2075720864000
0	204491695	0.255	1886232656000
0	205755745	0.256	1839208352000
0	207020774	0.257	826389840000
0	208292248	0.258	66489856000
0	209560526	0.259	1833470400000
0	210847628	0.26	2617647560000
0	212187947	0.261	2612505464000
0	213530416	0.262	45496448000
0	214885329	0.263	1072325232000
0	216208223	0.264	44670256000
0	217528114	0.265	47603248000
0	218877005	0.266	1879538400000
0	220233291	0.267	3595900096000
0	221566069	0.268	1939135264000
0	222906136	0.269	1850266120000
0	224243612	0.27	1823092832000
0	225586116	0.271	832008472000
0	226922194	0.272	61169488000
0	228260315	0.273	2629386128000
0	229647547	0.274	1824636440000
0	231041930	0.275	42576320000
0	232432070	0.276	1100216392000
0	233822854	0.277	261584824000
0	235234872	0.278	1891564416000
0	236609992	0.279	1812336440000
0	237996576	0.28	889076256000
0	239395480	0.281	1842698744000
0	240774588	0.282	847817528000
0	242156378	0.283	5401818736000
0	243538015	0.284	71160552000
0	244936797	0.285	42290432000
0	246319767	0.286	1833670768000
0	247723087	0.287	1823669088000
0	249121844	0.288	2614765256000
0	250493556	0.289	1842039120000
0	251856670	0.29	39014600000
0	253222778	0.291	4400670752000
0	254604534	0.292	67138896000
0	255994799	0.293	3829929024000
0	257370156	0.294	50416272000
0	258744071	0.295	28724864000
0	260121508	0.296	1819105304000
0	261520419	0.297	263607792000
0	262940575	0.298	2624938160000
0	264376591	0.299	4411982176000
0	265806957	0.3	872154424000
0	267245975	0.301	1826366776000
0	268700766	0.302	1835156384000
0	270201187	0.303	32412448000
0	271680123	0.304	45960432000
0	273161547	0.305	2614105472000
0	274631427	0.306	831218912000
0	276125911	0.307	42419224000
0	277612105	0.308	1832824912000
0	279094671	0.309	3430402392000
0	280612712	0.31	1899863040000
0	282109964	0.311	265372160000
0	283607182	0.312	42445848000
0	285132008	0.313	836610824000
0	286635773	0.314	1888281544000
0	288129878	0.315	851265936000
0	289661490	0.316	1821989144000
0	291167762	0.317	61756256000
0	292705131	0.318	284999360000
0	294235591	0.319	2668270392000
0	295778983	0.32	839869344000
0	297316874	0.321	853324624000
0	298833594	0.322	49943248000
0	300367786	0.323	265477368000
0	301934490	0.324	56927112000
0	303487366	0.325	2903169376000
0	305027423	0.326	1826130704000
0	306586936	0.327	1833067608000
0	308159958	0.328	3626603056000
0	309728180	0.329	1821889688000
0	311294517	0.33	1816221528000
0	312871160	0.331	45060912000
0	314452016	0.332	57328768000
0	316024697	0.333	885683680000
0	317602271	0.334	832375440000
0	319158640	0.335	820849112000
0	320721279	0.336	19491184000
0	322301151	0.337	1837226296000
0	323893717	0.338	1865124832000
0	325467953	0.339	2622959472000
0	327037120	0.34	46473408000
0	328626319	0.341	1818204944000
0	330216466	0.342	56484168000
0	331795429	0.343	3409268376000
0	333435739	0.344	896075472000
0	335029614	0.345	1848826960000
0	336606794	0.346	59209016000
0	338185738	0.347	2070432440000
0	339754312	0.348	28020816000
0	341342217	0.349	485876352000
0	342917302	0.35	1840127976000
0	344483159	0.351	59158424000
0	346028071	0.352	2866326800000
0	347617761	0.353	46753256000
0	349183428	0.354	1620893928000
0	350766495	0.355	2068068232000
0	352344858	0.356	1820269176000
0	353921156	0.357	59523000000
0	355501004	0.358	104329368000
0	357070875	0.359	5401231272000
0	358659331	0.36	2629300168000
0	360232389	0.361	1833447520000
0	361797789	0.362	1897643296000
0	363346157	0.363	1817886144000
0	364966624	0.364	3113632416000
0	366567678	0.365	1817782888000
0	368156011	0.366	38199328000
0	369770170	0.367	1833830576000
0	371385350	0.368	3618583168000
0	373035503	0.369	4841895176000
0	374694966	0.37	122182304000
0	376380178	0.371	44600728000
0	378013433	0.372	2049147120000
0	379681610	0.373	51775664000
0	381346937	0.374	860707624000
0	383034241	0.375	47146096000
0	384714047	0.376	1885679944000
0	386388874	0.377	5195038680000
0	388052694	0.378	811640632000
0	389697240	0.379	1833570840000
0	391337010	0.38	5439147488000
0	393000786	0.381	35078888000
0	394654217	0.382	5406288768000
0	396300069	0.383	59365856000
0	397951050	0.384	6179678664000
0	399632911	0.385	2612634240000
0	401317302	0.386	1059511464000
0	402992496	0.387	3414299024000
0	404668170	0.388	1815344496000
0	406351501	0.389	1630449912000
0	408074384	0.39	833089032000
0	409798633	0.391	3669377512000
0	411528033	0.392	1055710256000
0	413258919	0.393	1706768104000
0	415003667	0.394	23418720000
0	416718767	0.395	843533856000
0	418402956	0.396	2854279272000
0	420127698	0.397	278532096000
0	421809920	0.398	843767032000
0	423512484	0.399	312176936000
0	425204970	0.4	167273496000
0	426881896	0.401	1847485472000
0	428566731	0.402	842350056000
0	430249573	0.403	6166167432000
0	431922506	0.404	1627891680000
0	433611046	0.405	2069465200000
0	435334405	0.406	1621918984000
0	437067656	0.407	2043215736000
0	438782359	0.408	1628016528000
0	440431400	0.409	55672136000
0	442087437	0.41	45169320000
0	443742153	0.411	31204864000
0	445376864	0.412	1821817168000
0	447037656	0.413	176392408000
0	448683014	0.414	2701438320000
0	450346336	0.415	3427608104000
0	452011595	0.416	45125160000
0	453688304	0.417	1851984768000
0	455371420	0.418	260581408000
0	457030659	0.419	3416955768000
0	458715275	0.42	1818221168000
0	460378858	0.421	82285360000
0	462030600	0.422	1831231728000
0	463693905	0.423	1815866960000
0	465364521	0.424	1827486632000
0	467035769	0.425	259540360000
0	468720694	0.426	1837736816000
0	470416904	0.427	2861782448000
0	472113922	0.428	1834133472000
0	473787680	0.429	2823414400000
0	475479648	0.43	2620407648000
0	477174799	0.431	7963759288000
0	478868366	0.432	1982400704000
0	480566907	0.433	1844808472000
0	482268749	0.434	2043604352000
0	483961080	0.435	37599360000
0	485640094	0.436	826621864000
0	487319736	0.437	46779160000
0	489022851	0.438	61332128000
0	490742827	0.439	36575544000
0	492448829	0.44	1831100168000
0	494163718	0.441	1883824272000
0	495905811	0.442	99809632000
0	497641944	0.443	1829777928000
0	499358232	0.444	821377928000
0	501076317	0.445	1830136160000
0	502828796	0.446	1283115656000
0	504558538	0.447	5598987888000
0	506287694	0.448	832326016000
0	508016213	0.449	54933584000
0	509748433	0.45	26763424000
0	511472564	0.451	261228400000
0	513222924	0.452	1821709744000
0	514969688	0.453	1826382920000
0	516727078	0.454	46464584000
0	518507916	0.455	3833118496000
0	520295083	0.456	260065424000
0	522089019	0.457	511243464000
0	523913479	0.458	815480808000
0	525704578	0.459	818725912000
0	527493582	0.46	123537784000
0	529273112	0.461	1835764224000
0	531030236	0.462	39564720000
0	532783561	0.463	834481848000
0	534524494	0.464	47447544000
0	536268389	0.465	7190294128000
0	537997416	0.466	29700224000
0	539738508	0.467	1840537736000
0	541454778	0.468	4517551416000
0	543160572	0.469	884092488000
0	544873550	0.47	869218936000
0	546619949	0.471	822232504000
0	548335475	0.472	2820453696000
0	550068084	0.473	45017696000
0	551795031	0.474	1832407640000
0	553546811	0.475	29192016000
0	555315058	0.476	1828674048000
0	557047458	0.477	119568760000
0	558795288	0.478	251017520000
0	560553974	0.479	826439952000
0	562309500	0.48	859351464000
0	564075138	0.481	1055281696000
0	565841487	0.482	80122056000
0	567584435	0.483	28673144000
0	569326465	0.484	3836275632000
0	571054035	0.485	44796720000
0	572781592	0.486	1829433832000
0	574547085	0.487	1830420784000
0	576300423	0.488	3631008832000
0	578059011	0.489	278048384000
0	579825643	0.49	42822320000
0	581591464	0.491	1827682152000
0	583377882	0.492	1063957512000
0	585185420	0.493	2100800624000
0	586990163	0.494	40120216000
0	588815875	0.495	4394372744000
0	590649693	0.496	37264680000
0	592478568	0.497	1850591848000
0	594297791	0.498	241369968000
0	596134242	0.499	125807328000
0	597964832	0.5	1823439960000
0	599792095	0.501	1622554480000
0	601627091	0.502	7195163472000
0	603477467	0.503	850476008000
0	605346858	0.504	255820576000
0	607182015	0.505	53471816000
0	609042739	0.506	1832376296000
0	610931770	0.507	2630364656000
0	612810663	0.508	839179536000
0	614685542	0.509	5389480088000
0	616559981	0.51	3619441384000
0	618426260	0.511	51384344000
0	620287330	0.512	1832337544000
0	622153496	0.513	41559112000
0	623998996	0.514	836230224000
0	625835504	0.515	2832735224000
0	627701327	0.516	1829698952000
0	629596080	0.517	42651112000
0	631446123	0.518	2623641496000
0	633285576	0.519	267867808000
0	635128797	0.52	1845867616000
0	636982239	0.521	35903464000
0	638810478	0.522	40555696000
0	640631478	0.523	33487192000
0	642467274	0.524	838360960000
0	644333688	0.525	1831169424000
0	646213000	0.526	3609340416000
0	648095711	0.527	2611382880000
0	649999485	0.528	3621989120000
0	651887946	0.529	55650136000
0	653799076	0.53	2625520368000
0	655731192	0.531	841158864000
0	657658153	0.532	2616582880000
0	659583619	0.533	27130336000
0	661510956	0.534	1105979112000
0	663453109	0.535	3396022888000
0	665386535	0.536	47507152000
0	667331258	0.537	2852364016000
0	669294377	0.538	249543368000
0	671268871	0.539	1826914848000
0	673222044	0.54	3393665272000
0	675200549	0.541	5394767144000
0	677178244	0.542	4398081480000
0	679137812	0.543	22716056000
0	681081705	0.544	2844455992000
0	683031439	0.545	1823181360000
0	685022284	0.546	3906494368000
0	687062005	0.547	828878544000
0	689100275	0.548	51092736000
0	691101899	0.549	851932528000
0	693080284	0.55	1806653144000
0	695082161	0.551	133231320000
0	697080540	0.552	329966192000
0	699090729	0.553	1828082104000
0	701077819	0.554	55648568000
0	703042365	0.555	2851496264000
0	705010193	0.556	2647363968000
0	706976992	0.557	94120448000
0	708937792	0.558	820950736000
0	710924103	0.559	52265016000
0	712910856	0.56	1854223424000
0	714861166	0.561	1953285384000
0	716816758	0.562	240068776000
0	718814985	0.563	1840671288000
0	720777112	0.564	69695680000
0	722746903	0.565	1837553152000
0	724717964	0.566	1828822800000
0	726669255	0.567	2669768368000
0	728621058	0.568	66355736000
0	730549054	0.569	4663173960000
0	732496547	0.57	853940512000
0	734447635	0.571	3828719936000
0	736380559	0.572	3829159248000
0	738298639	0.573	19947328000
0	740240886	0.574	50507264000
0	742192861	0.575	56269600000
0	744146898	0.576	1848703376000
0	746066243	0.577	1828655952000
0	747998791	0.578	49372064000
0	749948961	0.579	63983264000
0	751888528	0.58	3675508488000
0	753838556	0.581	36530832000
0	755804549	0.582	26642216000
0	757756872	0.583	1838020888000
0	759706489	0.584	2060291944000
0	761679362	0.585	1824926816000
0	763663429	0.586	1060530248000
0	765657308	0.587	2067990520000
0	767636976	0.588	1837029976000
0	769628899	0.589	251951328000
0	771631381	0.59	3623504128000
0	773651281	0.591	32605200000
0	775672796	0.592	2820236576000
0	777685430	0.593	854912056000
0	779708248	0.594	1618317024000
0	781697957	0.595	2637722144000
0	783726374	0.596	3415796672000
0	785774213	0.597	52382392000
0	787836525	0.598	283273496000
0	789888384	0.599	48714176000
0	791975074	0.6	6191036792000
0	794094453	0.601	326379216000
0	796241828	0.602	3609206288000
0	798399943	0.603	1835908064000
0	800559674	0.604	1834667232000
0	802715035	0.605	1898646136000
0	804835052	0.606	28932848000
0	807004779	0.607	56436728000
0	809175850	0.608	3610695384000
0	811331971	0.609	93592104000
0	813491794	0.61	3659893680000
0	815637067	0.611	149027048000
0	817818036	0.612	1836715344000
0	820027904	0.613	6265397024000
0	822226279	0.614	1693712552000
0	824423366	0.615	3818581856000
0	826601650	0.616	3409878280000
0	828812188	0.617	1886434488000
0	830989194	0.618	63162472000
0	833147896	0.619	39816240000
0	835302375	0.62	2608988560000
0	837473327	0.621	3687984288000
0	839687834	0.622	1823555904000
0	841871565	0.623	2829363424000
0	844034758	0.624	1844044728000
0	846199749	0.625	3591423840000
0	848385107	0.626	90919016000
0	850568752	0.627	1836676232000
0	852726904	0.628	1853593624000
0	854909846	0.629	1837039880000
0	857105425	0.63	1820285048000
0	859289975	0.631	956234176000
0	861468556	0.632	38710672000
0	863663787	0.633	1832719104000
0	865850969	0.634	3428395656000
0	868035364	0.635	59183560000
0	870238869	0.636	46949880000
0	872441490	0.637	1844680624000
0	874659104	0.638	1846357624000
0	876865454	0.639	3841224440000
0	879047706	0.64	38488824000
0	881241087	0.641	1832551680000
0	883480194	0.642	4685875192000
0	885717734	0.643	852772752000
0	887983277	0.644	2608909944000
0	890205069	0.645	1832875400000
0	892417421	0.646	41117936000
0	894636346	0.647	901973856000
0	896851718	0.648	3832831600000
0	899069005	0.649	845962384000
0	901281078	0.65	820744648000
0	903489291	0.651	1838692800000
0	905686939	0.652	2623906224000
0	907911369	0.653	2640681136000
0	910134573	0.654	4651948328000
0	912372363	0.655	5411785824000
0	914597416	0.656	3632888112000
0	916805856	0.657	4391782128000
0	918993630	0.658	37768512000
0	921186924	0.659	1887927160000
0	923400088	0.66	838891712000
0	925614537	0.661	1845451696000
0	927827871	0.662	3612871584000
0	930035213	0.663	3616258848000
0	932268956	0.664	834409416000
0	934503842	0.665	3432410824000
0	936718970	0.666	2627358088000
0	938941264	0.667	4406336112000
0	941141439	0.668	42099984000
0	943333906	0.669	48088544000
0	945543879	0.67	3675911120000
0	947765726	0.671	2641448944000
0	949964934	0.672	2626503560000
0	952174197	0.673	250278160000
0	954372880	0.674	51218256000
0	956545212	0.675	1628433680000
0	958709473	0.676	29629168000
0	960880988	0.677	45621592000
0	963055634	0.678	1049594456000
0	965240253	0.679	1850997992000
0	967408545	0.68	53753616000
0	969561793	0.681	260639176000
0	971731360	0.682	1810440760000
0	973911408	0.683	2060298560000
0	976080289	0.684	838994552000
0	978244506	0.685	460696672000
0	980384116	0.686	816375856000
0	982532952	0.687	39062216000
0	984727184	0.688	41606400000
0	986913848	0.689	48937872000
0	989124176	0.69	834697888000
0	991321312	0.691	102895360000
0	993531800	0.692	41045920000
0	995742784	0.693	862945840000
0	997966755	0.694	5390876288000
0	1000168700	0.695	282025704000
0	1002365508	0.696	895639928000
0	1004585209	0.697	2619065576000
0	1006785802	0.698	47355728000
0	1008982499	0.699	7435457552000
0	1011164251	0.7	283915152000
0	1013372132	0.701	291844880000
0	1015587529	0.702	1854631576000
0	1017787169	0.703	4413288448000
0	1019979661	0.704	1879515512000
0	1022146421	0.705	1877884712000
0	1024326491	0.706	2635897856000
0	1026499013	0.707	1897711512000
0	1028682218	0.708	28760032000
0	1030880922	0.709	4394858760000
0	1033114459	0.71	52834408000
0	1035338493	0.711	3851432032000
0	1037539310	0.712	31020416000
0	1039751507	0.713	316367552000
0	1041943942	0.714	3843337664000
0	1044158732	0.715	29065240000
0	1046403931	0.716	255633360000
0	1048617836	0.717	1830455960000
0	1050836040	0.718	843162792000
0	1053072681	0.719	1885333344000
0	1055279142	0.72	839946880000
0	1057492235	0.721	1094054608000
0	1059731645	0.722	3635704032000
0	1061976374	0.723	1823774008000
0	1064224962	0.724	130876848000
0	1066463655	0.725	288259768000
0	1068711783	0.726	829039184000
0	1070938124	0.727	849626536000
0	1073184057	0.728	257569240000
0	1075425768	0.729	251648928000
0	1077668991	0.73	35533880000
0	1079881761	0.731	2050372080000
0	1082128478	0.732	3840215048000
0	1084344027	0.733	46183608000
0	1086557688	0.734	28928080000
0	1088755743	0.735	827650496000
0	1090971812	0.736	1826014080000
0	1093207691	0.737	261162264000
0	1095427069	0.738	49452328000
0	1097677582	0.739	890553920000
0	1099898670	0.74	50261360000
0	1102122660	0.741	32987320000
0	1104356794	0.742	2667913304000
0	1106584708	0.743	72326576000
0	1108849288	0.744	3829058040000
0	1111094633	0.745	69358056000
0	1113343083	0.746	27338744000
0	1115587140	0.747	828792112000
0	1117857158	0.748	3446336168000
0	1120093370	0.749	3608546968000
0	1122342549	0.75	3618804832000
0	1124554334	0.751	58858520000
0	1126756151	0.752	2615765064000
0	1128940052	0.753	1830580064000
0	1131128161	0.754	1069403528000
0	1133318276	0.755	2621380536000
0	1135500906	0.756	1819575400000
0	1137694562	0.757	1814990424000
0	1139892276	0.758	35886368000
0	1142123647	0.759	3850053488000
0	1144361988	0.76	3701195032000
0	1146606833	0.761	5219878448000
0	1148874646	0.762	49287856000
0	1151147556	0.763	1649237856000
0	1153401482	0.764	40816720000
0	1155642670	0.765	1061676696000
0	1157875429	0.766	4403716024000
0	1160128893	0.767	8955293248000
0	1162374610	0.768	823251480000
0	1164598322	0.769	1826519088000
0	1166840453	0.77	36481824000
0	1169069835	0.771	2046840920000
0	1171324529	0.772	2611901320000
0	1173605200	0.773	851211832000
0	1175880459	0.774	57602536000
0	1178145048	0.775	53603600000
0	1180442847	0.776	3632132816000
0	1182730278	0.777	97187064000
0	1185021593	0.778	37467976000
0	1187309811	0.779	4407241696000
0	1189586440	0.78	42567568000
0	1191853957	0.781	828723136000
0	1194114374	0.782	6207117384000
0	1196389830	0.783	1829005568000
0	1198702562	0.784	36863704000
0	1200997515	0.785	57984808000
0	1203274347	0.786	1892090376000
0	1205589454	0.787	839576696000
0	1207878749	0.788	21990736000
0	1210179049	0.789	1857274888000
0	1212421899	0.79	1836352360000
0	1214683036	0.791	52821424000
0	1216939443	0.792	2606533688000
0	1219213199	0.793	142026744000
0	1221470477	0.794	1825818992000
0	1223720145	0.795	1842837440000
0	1225959839	0.796	1825960472000
0	1228208075	0.797	56112744000
0	1230444535	0.798	34116176000
0	1232664123	0.799	829721448000
0	1234895412	0.8	846307760000
0	1237166920	0.801	1270153432000
0	1239428879	0.802	3604539688000
0	1241672896	0.803	51756000000
0	1243946410	0.804	908435416000
0	1246236111	0.805	1828279912000
0	1248532962	0.806	47776440000
0	1250832414	0.807	2064574992000
0	1253100536	0.808	47846240000
0	1255404162	0.809	52115600000
0	1257709950	0.81	3047500272000
0	1260010455	0.811	841326240000
0	1262311871	0.812	1055443776000
0	1264633942	0.813	47005304000
0	1266952638	0.814	24215392000
0	1269249558	0.815	36588744000
0	1271564901	0.816	900174424000
0	1273866832	0.817	1949050160000
0	1276159097	0.818	1840988176000
0	1278459128	0.819	2618274960000
0	1280741021	0.82	1826144616000
0	1283006786	0.821	835789192000
0	1285263073	0.822	1854141768000
0	1287517051	0.823	62691272000
0	1289716484	0.824	840416272000
0	1291950489	0.825	890909168000
0	1294190052	0.826	1042430344000
0	1296450644	0.827	5417487648000
0	1298699864	0.828	3831568856000
0	1300945126	0.829	3839839352000
0	1303182515	0.83	248474000000
0	1305437683	0.831	3846016064000
0	1307710719	0.832	823101104000
0	1309986958	0.833	5399957584000
0	1312274468	0.834	1843797936000
0	1314528938	0.835	381124840000
0	1316769409	0.836	40815016000
0	1319030943	0.837	3593863544000
0	1321316107	0.838	277865592000
0	1323600672	0.839	2652817272000
0	1325873926	0.84	2603395312000
0	1328143899	0.841	5415944664000
0	1330423209	0.842	2632220768000
0	1332715189	0.843	1837318368000
0	1334980325	0.844	3617073144000
0	1337262787	0.845	263407144000
0	1339545905	0.846	2621652728000
0	1341868801	0.847	43229600000
0	1344184087	0.848	4398940216000
0	1346509344	0.849	3613570504000
0	1348837558	0.85	52860360000
0	1351155176	0.851	1898991296000
0	1353465780	0.852	1825952312000
0	1355783518	0.853	834764560000
0	1358071971	0.854	1830170736000
0	1360356661	0.855	52905032000
0	1362674543	0.856	60305872000
0	1365010387	0.857	90631896000
0	1367332128	0.858	856104056000
0	1369645503	0.859	4615452664000
0	1371976418	0.86	54640768000
0	1374352677	0.861	50155272000
0	1376712237	0.862	1823957704000
0	1379065707	0.863	845151416000
0	1381419988	0.864	1841281064000
0	1383755255	0.865	58646592000
0	1386064648	0.866	1831131424000
0	1388363691	0.867	1826614344000
0	1390677971	0.868	93248704000
0	1392991721	0.869	1898642456000
0	1395306960	0.87	113633888000
0	1397660236	0.871	93038984000
0	1400020896	0.872	1607546032000
0	1402363634	0.873	249858368000
0	1404717257	0.874	838336584000
0	1407070281	0.875	1826692888000
0	1409446143	0.876	1856019408000
0	1411839029	0.877	1808168384000
0	1414206499	0.878	1064853616000
0	1416581222	0.879	3608957792000
0	1418964412	0.88	897862912000
0	1421321206	0.881	3612602816000
0	1423693543	0.882	844003520000
0	1426058846	0.883	41729040000
0	1428427234	0.884	2671486288000
0	1430819077	0.885	942495400000
0	1433191320	0.886	1822046544000
0	1435558236	0.887	1822654216000
0	1437937476	0.888	1862188072000
0	1440323545	0.889	3612415504000
0	1442716630	0.89	3816956304000
0	1445108301	0.891	1682195048000
0	1447461285	0.892	897063736000
0	1449796124	0.893	107042904000
0	1452164894	0.894	1816516072000
0	1454540226	0.895	2130202552000
0	1456925309	0.896	5397286432000
0	1459291307	0.897	37104776000
0	1461653311	0.898	1893601112000
0	1464016997	0.899	1834944600000
0	1466356416	0.9	1831585752000
0	1468709777	0.901	1838716736000
0	1471041031	0.902	2611315240000
0	1473375960	0.903	39724488000
0	1475733414	0.904	24905000000
0	1478100702	0.905	4452968392000
0	1480459665	0.906	22769288000
0	1482824565	0.907	60019136000
0	1485213396	0.908	1821082528000
0	1487610721	0.909	56203336000
0	1490020543	0.91	42170144000
0	1492418105	0.911	2622975200000
0	1494838476	0.912	825282296000
0	1497236408	0.913	51700456000
0	1499656553	0.914	2613888560000
0	1502108167	0.915	1817704720000
0	1504554114	0.916	36867048000
0	1506982675	0.917	3406298312000
0	1509421352	0.918	2052652120000
0	1511861522	0.919	43160496000
0	1514296020	0.92	4045825840000
0	1516744479	0.921	1071997112000
0	1519186741	0.922	1813452128000
0	1521625921	0.923	42394840000
0	1524065575	0.924	1619391648000
0	1526545345	0.925	2046906048000
0	1528995529	0.926	52035744000
0	1531406778	0.927	39295192000
0	1533843520	0.928	1114372208000
0	1536282266	0.929	251063960000
0	1538729140	0.93	2635009504000
0	1541172169	0.931	1056370960000
0	1543597672	0.932	3670793296000
0	1546024756	0.933	842532592000
0	1548448733	0.934	59090824000
0	1550872166	0.935	52527344000
0	1553304156	0.936	2120381696000
0	1555696589	0.937	1890544000000
0	1558122006	0.938	78882288000
0	1560553750	0.939	2045130472000
0	1562995636	0.94	40965280000
0	1565392073	0.941	2057145488000
0	1567801862	0.942	43024640000
0	1570217915	0.943	3596700872000
0	1572627425	0.944	60630464000
0	1575053519	0.945	37155152000
0	1577471992	0.946	3614046664000
0	1579907479	0.947	101111384000
0	1582359144	0.948	856152592000
0	1584790030	0.949	1046914248000
0	1587219738	0.95	1856306840000
0	1589653626	0.951	250076840000
0	1592102977	0.952	3457340248000
0	1594554662	0.953	2606536896000
0	1597028821	0.954	1805361320000
0	1599502452	0.955	33069152000
0	1601988896	0.956	50452744000
0	1604481676	0.957	3615616080000
0	1606945252	0.958	817389488000
0	1609419962	0.959	2615233160000
0	1611916069	0.96	35631928000
0	1614409202	0.961	96786240000
0	1616911223	0.962	1830067736000
0	1619432474	0.963	383108688000
0	1621964575	0.964	39782896000
0	1624508899	0.965	59830424000
0	1627059302	0.966	3619647656000
0	1629603033	0.967	1828901600000
0	1632162273	0.968	1837344192000
0	1634692454	0.969	1838434928000
0	1637229936	0.97	1837440120000
0	1639743733	0.971	34791728000
0	1642285248	0.972	3627514864000
0	1644804248	0.973	99200272000
0	1647331489	0.974	116396216000
0	1649861452	0.975	3609728168000
0	1652402645	0.976	3142635448000
0	1654936384	0.977	32065648000
0	1657470479	0.978	249940936000
0	1659984254	0.979	20835424000
0	1662512252	0.98	54234584000
0	1665027843	0.981	110025032000
0	1667543288	0.982	1833804976000
0	1670057755	0.983	2629447424000
0	1672556120	0.984	1807994000000
0	1675084362	0.985	62794160000
0	1677622091	0.986	880653152000
0	1680139731	0.987	37453368000
0	1682643841	0.988	138928712000
0	1685154661	0.989	3468583112000
0	1687676303	0.99	1835317168000
0	1690178879	0.991	49192048000
0	1692712234	0.992	1048804912000
0	1695238530	0.993	1624178960000
0	1697745665	0.994	2607354024000
0	1700255453	0.995	3621991496000
0	1702786924	0.996	4635647176000
0	1705320949	0.997	2034424568000
0	1707873772	0.998	24210840000
0	1710432290	0.999	261781408000
0	1712998955	1	270655608000
0	1715571807	1.001	52088056000
0	1718150912	1.002	5408861792000
0	1720747547	1.003	1860088480000
0	1723313111	1.004	1889061024000
0	1725876366	1.005	815498072000
0	1728478741	1.006	43220912000
0	1731097333	1.007	60288728000
0	1733695095	1.008	1034718664000
0	1736272004	1.009	43086608000
0	1738864295	1.01	2039522128000
0	1741450925	1.011	3949319264000
0	1744049783	1.012	27954432000
0	1746609168	1.013	21502792000
0	1749173168	1.014	19929200000
0	1751723261	1.015	3606927440000
0	1754271870	1.016	3405512840000
0	1756809117	1.017	1822656368000
0	1759330554	1.018	838129984000
0	1761857928	1.019	1835834144000
0	1764408717	1.02	47217576000
0	1766937116	1.021	51281192000
0	1769442461	1.022	1812103320000
0	1771972578	1.023	2619704976000
0	1774491790	1.024	254041872000
0	1776993331	1.025	36123400000
0	1779516715	1.026	3602496968000
0	1782006351	1.027	59443008000
0	1784534931	1.028	1840512944000
0	1787054815	1.029	3816588744000
0	1789579652	1.03	1828514096000
0	1792112308	1.031	36309536000
0	1794635906	1.032	1817296672000
0	1797135175	1.033	265408648000
0	1799642052	1.034	1611688760000
0	1802119897	1.035	1830262736000
0	1804594173	1.036	33711504000
0	1807055108	1.037	37380416000
0	1809504337	1.038	276794888000
0	1811925950	1.039	3655293128000
0	1814405257	1.04	1841960544000
0	1816876515	1.041	56515840000
0	1819352268	1.042	1662874904000
0	1821850672	1.043	1833438248000
0	1824357944	1.044	3814988800000
0	1826858854	1.045	1812419040000
0	1829390427	1.046	3603505968000
0	1831925685	1.047	1826329456000
0	1834415654	1.048	261854296000
0	1836897606	1.049	3828861056000
0	1839413750	1.05	53985096000
0	1841907415	1.051	1632618864000
0	1844388070	1.052	2088585144000
0	1846847514	1.053	1818770800000
0	1849317606	1.054	41614056000
0	1851775763	1.055	1835329568000
0	1854224745	1.056	844154008000
0	1856691033	1.057	1821713968000
0	1859168378	1.058	51804952000
0	1861624205	1.059	39701904000
0	1864100370	1.06	1880456032000
0	1866594907	1.061	43900512000
0	1869109723	1.062	3615079200000
0	1871645029	1.063	52790624000
0	1874153316	1.064	1052727552000
0	1876637006	1.065	60444400000
0	1879122433	1.066	3053471256000
0	1881605901	1.067	109237936000
0	1884121149	1.068	3660003224000
0	1886621797	1.069	1610765280000
0	1889140671	1.07	835214472000
0	1891646757	1.071	49331776000
0	1894141359	1.072	6422871288000
0	1896628116	1.073	826493352000
0	1899125397	1.074	837845864000
0	1901647287	1.075	2630263672000
0	1904179259	1.076	1038192072000
0	1906722647	1.077	816461288000
0	1909244007	1.078	1824194120000
0	1911777207	1.079	1846371568000
0	1914278819	1.08	249430344000
0	1916773231	1.081	1814687856000
0	1919275347	1.082	5456066600000
0	1921793125	1.083	1844602888000
0	1924328044	1.084	1837730688000
0	1926874815	1.085	2635737840000
0	1929463867	1.086	54926320000
0	1932061487	1.087	3597130696000
0	1934653424	1.088	272129904000
0	1937234581	1.089	5597060936000
0	1939819971	1.09	46460448000
0	1942431287	1.091	4422371960000
0	1945027120	1.092	836022136000
0	1947620044	1.093	1822184464000
0	1950239159	1.094	2675373856000
0	1952845716	1.095	1827400048000
0	1955488117	1.096	1844060680000
0	1958115843	1.097	3447986840000
0	1960733682	1.098	832967080000
0	1963360971	1.099	71610704000
0	1966007511	1.1	270996928000
0	1968678245	1.101	3606824576000
0	1971351839	1.102	37132568000
0	1974022318	1.103	48416752000
0	1976688486	1.104	27066600000
0	1979359734	1.105	1831268520000
0	1982029356	1.106	36689920000
0	1984704479	1.107	1857522000000
0	1987414004	1.108	42968408000
0	1990097673	1.109	2600214952000
0	1992775786	1.11	860140440000
0	1995457508	1.111	41865984000
0	1998135088	1.112	3594816176000
0	2000791924	1.113	50923448000
0	2003458758	1.114	817082848000
0	2006116775	1.115	847000944000
0	2008792122	1.116	118523160000
0	2011442836	1.117	813034424000
0	2014097255	1.118	1849357536000
0	2016759828	1.119	848792192000
0	2019445927	1.12	826281624000
0	2022164196	1.121	3619068536000
0	2024886031	1.122	100697008000
0	2027565905	1.123	864245912000
0	2030229845	1.124	880480720000
0	2032934678	1.125	4423175352000
0	2035645986	1.126	3419666984000
0	2038369787	1.127	4641779432000
0	2041085140	1.128	1840470072000
0	2043801092	1.129	5427427920000
0	2046489170	1.13	825903768000
0	2049181699	1.131	852321920000
0	2051884640	1.132	1822856424000
0	2054582286	1.133	327566840000
0	2057306362	1.134	3594500448000
0	2060019867	1.135	53671040000
0	2062741117	1.136	840586624000
0	2065445481	1.137	4396202080000
0	2068153560	1.138	2721006992000
0	2070864788	1.139	1830200096000
0	2073585688	1.14	2045315680000
0	2076323291	1.141	848938232000
0	2079062155	1.142	2672151328000
0	2081796234	1.143	2609051008000
0	2084540497	1.144	923047504000
0	2087282403	1.145	1817116104000
0	2090043263	1.146	1616615856000
0	2092819219	1.147	244011824000
0	2095619275	1.148	1898441000000
0	2098434858	1.149	847613712000
0	2101233211	1.15	2839239336000
0	2104073677	1.151	1835215600000
0	2106887205	1.152	43523224000
0	2109682095	1.153	844853000000
0	2112454901	1.154	246171560000
0	2115206109	1.155	841733856000
0	2117981799	1.156	825887784000
0	2120762248	1.157	2039808736000
0	2123542781	1.158	1817764896000
0	2126279322	1.159	42761752000
0	2129044285	1.16	1895301336000
0	2131831268	1.161	68162192000
0	2134607209	1.162	1837401152000
0	2137387075	1.163	6975758744000
0	2140181230	1.164	2609052672000
0	2142973359	1.165	1821665312000
0	2145718064	1.166	1830420752000
0	2148485742	1.167	1826217168000
0	2151278343	1.168	838629120000
0	2154090005	1.169	4447108704000
0	2156873758	1.17	6184703672000
0	2159646860	1.171	844910768000
0	2162398606	1.172	36978280000
0	2165167773	1.173	4387270888000
0	2167946162	1.174	1044566432000
0	2170709685	1.175	3617545024000
0	2173487121	1.176	3616237712000
0	2176287924	1.177	1829380120000
0	2179057786	1.178	3609435336000
0	2181818650	1.179	1880565232000
0	2184590398	1.18	1835823712000
0	2187364084	1.181	41354280000
0	2190116000	1.182	2615203536000
0	2192904354	1.183	3848302016000
0	2195686190	1.184	837151096000
0	2198463511	1.185	2626943408000
0	2201216057	1.186	2053561832000
0	2203996280	1.187	1845367648000
0	2206788051	1.188	2107003120000
0	2209584250	1.189	4411335736000
0	2212385685	1.19	277289640000
0	2215146239	1.191	2838154600000
0	2217917189	1.192	59022200000
0	2220702063	1.193	1832074592000
0	2223466367	1.194	3609917040000
0	2226234648	1.195	1834326720000
0	2228986132	1.196	2675290336000
0	2231710863	1.197	1823650568000
0	2234433472	1.198	37180376000
0	2237145633	1.199	2036738584000
0	2239880478	1.2	1853195800000
0	2242619673	1.201	38082720000
0	2245348492	1.202	1089101984000
0	2248069952	1.203	261528384000
0	2250805708	1.204	60611752000
0	2253513198	1.205	1829580712000
0	2256216620	1.206	22823408000
0	2258926236	1.207	50253456000
0	2261604076	1.208	1818309752000
0	2264340060	1.209	267066888000
0	2267073433	1.21	3669301480000
0	2269804430	1.211	2640176272000
0	2272546486	1.212	1854311752000
0	2275284504	1.213	317422376000
0	2278009615	1.214	1813438824000
0	2280733277	1.215	75313224000
0	2283458415	1.216	1891824560000
0	2286198002	1.217	276366896000
0	2288946402	1.218	1858626416000
0	2291694655	1.219	2114290592000
0	2294443714	1.22	3672226336000
0	2297187386	1.221	45248376000
0	2299939972	1.222	29855424000
0	2302686920	1.223	264213928000
0	2305463937	1.224	68626360000
0	2308254064	1.225	1819384752000
0	2311009217	1.226	43929848000
0	2313791615	1.227	1822792680000
0	2316546469	1.228	3624596880000
0	2319279918	1.229	1866720056000
0	2322038119	1.23	3651470768000
0	2324798449	1.231	843526152000
0	2327568973	1.232	49203264000
0	2330331717	1.233	5411641680000
0	2333109498	1.234	106263576000
0	2335898963	1.235	98598568000
0	2338699912	1.236	6409360968000
0	2341472141	1.237	822130032000
0	2344253841	1.238	3810980192000
0	2347051561	1.239	2047756968000
0	2349832029	1.24	34589576000
0	2352629964	1.241	2055023440000
0	2355429965	1.242	59540720000
0	2358216907	1.243	5177215024000
0	2360996181	1.244	1810278256000
0	2363782383	1.245	822197144000
0	2366553879	1.246	39682264000
0	2369330211	1.247	43416352000
0	2372112239	1.248	2609753280000
0	2374891273	1.249	30965224000
0	2377675412	1.25	3619194208000
0	2380440953	1.251	3681420536000
0	2383218603	1.252	3601744880000
0	2385998389	1.253	120947112000
0	2388779617	1.254	2631871040000
0	2391562391	1.255	48227664000
0	2394343210	1.256	34174488000
0	2397122001	1.257	2054433952000
0	2399892291	1.258	50352904000
0	2402638230	1.259	1042159056000
0	2405395152	1.26	2612055776000
0	2408146567	1.261	2620638056000
0	2410874460	1.262	1835967384000
0	2413635970	1.263	2623962632000
0	2416395036	1.264	1823698408000
0	2419177430	1.265	1824612824000
0	2421947664	1.266	826070464000
0	2424733885	1.267	1826377008000
0	2427540693	1.268	3615427584000
0	2430341133	1.269	4446418688000
0	2433130181	1.27	337186488000
0	2435895307	1.271	2044393592000
0	2438656752	1.272	835794464000
0	2441444534	1.273	897728328000
0	2444233761	1.274	3600041728000
0	2446987330	1.275	865596872000
0	2449755790	1.276	1822183280000
0	2452532859	1.277	7207500736000
0	2455323600	1.278	1834537456000
0	2458080104	1.279	1888778864000
0	2460882984	1.28	1893601872000
0	2463687662	1.281	48563208000
0	2466486056	1.282	2610446072000
0	2469293025	1.283	1837196600000
0	2472117320	1.284	120208992000
0	2474933838	1.285	859410176000
0	2477728278	1.286	2419274312000
0	2480548192	1.287	1872804928000
0	2483341707	1.288	67307152000
0	2486139064	1.289	63933168000
0	2488959074	1.29	1832104272000
0	2491789894	1.291	1888815296000
0	2494578626	1.292	38927648000
0	2497400413	1.293	1828439064000
0	2500212142	1.294	4413540712000
0	2502993061	1.295	1832099744000
0	2505798543	1.296	41389600000
0	2508581036	1.297	45174320000
0	2511391868	1.298	52724200000
0	2514186581	1.299	1816243328000
0	2516979448	1.3	43128792000
0	2519767064	1.301	3838053736000
0	2522563567	1.302	114245096000
0	2525361472	1.303	2821430672000
0	2528156455	1.304	3612760440000
0	2530950763	1.305	3603022784000
0	2533722041	1.306	1822422176000
0	2536510778	1.307	832874304000
0	2539294433	1.308	1844284736000
0	2542073633	1.309	251766936000
0	2544844356	1.31	3620590184000
0	2547642505	1.311	1049158408000
0	2550472352	1.312	46052944000
0	2553299603	1.313	1839472248000
0	2556108930	1.314	2685093896000
0	2558930035	1.315	101094872000
0	2561719027	1.316	1816745072000
0	2564517632	1.317	1842938536000
0	2567304377	1.318	2618293848000
0	2570082149	1.319	2058852192000
0	2572886508	1.32	1822008800000
0	2575687910	1.321	1841564960000
0	2578513506	1.322	3613406248000
0	2581327530	1.323	36780272000
0	2584120691	1.324	1841546944000
0	2586891062	1.325	6403676832000
0	2589667596	1.326	1670685536000
0	2592455157	1.327	96020864000
0	2595236131	1.328	32081144000
0	2598013202	1.329	38266944000
0	2600774612	1.33	32870024000
0	2603563168	1.331	48627016000
0	2606388212	1.332	60692464000
0	2609182788	1.333	837120584000
0	2611993716	1.334	5438949696000
0	2614815700	1.335	40749104000
0	2617603135	1.336	817166592000
0	2620416272	1.337	1885212096000
0	2623240842	1.338	830979800000
0	2626062964	1.339	2843978064000
0	2628916069	1.34	87276848000
0	2631765878	1.341	88064624000
0	2634598499	1.342	107498200000
0	2637456257	1.343	1049668120000
0	2640345594	1.344	18859264000
0	2643224574	1.345	1812036048000
0	2646137748	1.346	841582104000
0	2649060853	1.347	1892985544000
0	2651968355	1.348	4392323688000
0	2654884441	1.349	48561992000
0	2657789092	1.35	3662210456000
0	2660685015	1.351	3609608856000
0	2663580007	1.352	2615100328000
0	2666454363	1.353	1819959440000
0	2669325959	1.354	38635936000
0	2672201266	1.355	35481568000
0	2675073470	1.356	1833599384000
0	2677971198	1.357	43195272000
0	2680862561	1.358	1815159120000
0	2683762412	1.359	1833682976000
0	2686673547	1.36	2629568536000
0	2689587001	1.361	2611305576000
0	2692475204	1.362	1629480728000
0	2695402967	1.363	70354848000
0	2698319432	1.364	1802996584000
0	2701255117	1.365	1831955160000
0	2704168262	1.366	1825456400000
0	2707080329	1.367	244654568000
0	2709977700	1.368	1858739832000
0	2712852141	1.369	60075432000
0	2715737585	1.37	38537280000
0	2718643896	1.371	1817913832000
0	2721558433	1.372	1823020024000
0	2724494102	1.373	53725128000
0	2727450439	1.374	837306208000
0	2730429093	1.375	36296408000
0	2733377735	1.376	5389699152000
0	2736344283	1.377	34087584000
0	2739296726	1.378	1044480224000
0	2742241454	1.379	84395320000
0	2745189608	1.38	34888544000
0	2748112107	1.381	52400448000
0	2751047678	1.382	31440432000
0	2753973795	1.383	263735288000
0	2756922103	1.384	63622904000
0	2759877169	1.385	38626504000
0	2762818392	1.386	2055003280000
0	2765768145	1.387	3605756160000
0	2768705661	1.388	1826716000000
0	2771650272	1.389	816422032000
0	2774576020	1.39	816005752000
0	2777500608	1.391	36035744000
0	2780445363	1.392	859569280000
0	2783372267	1.393	2823648000000
0	2786300031	1.394	62573800000
0	2789251530	1.395	2629094064000
0	2792197497	1.396	46240888000
0	2795152532	1.397	1848125888000
0	2798103975	1.398	2645628344000
0	2801037560	1.399	56798832000
0	2803980295	1.4	36658720000
0	2806934884	1.401	1836167184000
0	2809887466	1.402	5208002488000
0	2812856355	1.403	2282913736000
0	2815820629	1.404	39685616000
0	2818729673	1.405	2634526200000
0	2821673055	1.406	45832816000
0	2824638433	1.407	2051387936000
0	2827586167	1.408	3831883368000
0	2830543721	1.409	51508800000
0	2833488711	1.41	1826290904000
0	2836435963	1.411	249290736000
0	2839406336	1.412	869866984000
0	2842384318	1.413	1825447648000
0	2845322751	1.414	1827548168000
0	2848243466	1.415	80762808000
0	2851170484	1.416	2654659520000
0	2854070908	1.417	77802464000
0	2856965469	1.418	2622059312000
0	2859831961	1.419	48720616000
0	2862688450	1.42	2603820488000
0	2865545498	1.421	1815048208000
0	2868413848	1.422	57305608000
0	2871255657	1.423	32612976000
0	2874085686	1.424	279981808000
0	2876912496	1.425	40163968000
0	2879748428	1.426	1860608696000
0	2882582581	1.427	33481880000
0	2885414638	1.428	1824076008000
0	2888274989	1.429	1821441440000
0	2891155685	1.43	4413932560000
0	2894050877	1.431	2049264080000
0	2896963612	1.432	2040717904000
0	2899875041	1.433	1665315344000
0	2902798767	1.434	819891272000
0	2905687547	1.435	252286976000
0	2908597251	1.436	1848327216000
0	2911489499	1.437	1816461304000
0	2914394255	1.438	2276910896000
0	2917319766	1.439	1665661032000
0	2920237107	1.44	5626499864000
0	2923180684	1.441	5696025104000
0	2926142476	1.442	270767208000
0	2929080693	1.443	5398853592000
0	2932017853	1.444	1825301336000
0	2935032338	1.445	3601084688000
0	2938052938	1.446	855285744000
0	2941049959	1.447	827761968000
0	2944010467	1.448	1037524640000
0	2947002050	1.449	4646940600000
0	2950001184	1.45	2616666920000
0	2952993704	1.451	3606246328000
0	2955981576	1.452	1830562848000
0	2958971672	1.453	49461936000
0	2961944900	1.454	1814407896000
0	2964910874	1.455	56154848000
0	2967893607	1.456	282297440000
0	2970836259	1.457	2904768064000
0	2973764302	1.458	42198536000
0	2976717742	1.459	5472481224000
0	2979651542	1.46	2047187408000
0	2982602882	1.461	47003192000
0	2985585701	1.462	51180712000
0	2988540176	1.463	39096672000
0	2991480472	1.464	34941680000
0	2994469381	1.465	824489784000
0	2997470453	1.466	2614421456000
0	3000488568	1.467	1834511936000
0	3003479900	1.468	40157040000
0	3006475862	1.469	54133040000
0	3009478008	1.47	4389062688000
0	3012505099	1.471	1822369584000
0	3015547173	1.472	3613156480000
0	3018581361	1.473	821879912000
0	3021636673	1.474	876002856000
0	3024658842	1.475	42593400000
0	3027707821	1.476	38442736000
0	3030772827	1.477	38932360000
0	3033832473	1.478	3405826984000
0	3036877164	1.479	51257624000
0	3039890677	1.48	1621426304000
0	3042946326	1.481	3834227072000
0	3046027973	1.482	77453296000
0	3049092649	1.483	2484722960000
0	3052137573	1.484	2622975392000
0	3055168378	1.485	1807976432000
0	3058218775	1.486	1834119672000
0	3061260527	1.487	46861560000
0	3064297632	1.488	2614920920000
0	3067346648	1.489	6173333048000
0	3070381382	1.49	2033062784000
0	3073425816	1.491	1827148624000
0	3076452269	1.492	56686816000
0	3079499262	1.493	2415860568000
0	3082538752	1.494	2596760616000
0	3085587597	1.495	40925568000
0	3088630685	1.496	3425594144000
0	3091664980	1.497	857249960000
0	3094718426	1.498	28449352000
0	3097756736	1.499	811601696000
0	3100782835	1.5	1878929112000
0	3103807056	1.501	3626433328000
0	3106846817	1.502	1826600280000
0	3109895343	1.503	2619811920000
0	3112933110	1.504	41134504000
0	3115985282	1.505	257556400000
0	3119049593	1.506	1820726392000
0	3122082903	1.507	833148352000
0	3125133951	1.508	820212888000
0	3128183582	1.509	44144248000
0	3131227316	1.51	1602097584000
0	3134275996	1.511	1935988008000
0	3137332768	1.512	829515296000
0	3140361289	1.513	42409336000
0	3143350942	1.514	70471544000
0	3146340839	1.515	60367056000
0	3149336315	1.516	52971464000
0	3152323066	1.517	59054696000
0	3155327054	1.518	2625498816000
0	3158323789	1.519	902890264000
0	3161334670	1.52	5405553744000
0	3164328684	1.521	2821787088000
0	3167335086	1.522	829534952000
0	3170310453	1.523	1051306080000
0	3173280357	1.524	261336248000
0	3176238234	1.525	34452560000
0	3179217330	1.526	51966128000
0	3182212340	1.527	845645304000
0	3185208286	1.528	831007352000
0	3188178658	1.529	827295320000
0	3191136518	1.53	812499280000
0	3194104107	1.531	4387655112000
0	3197076316	1.532	833871656000
0	3200043516	1.533	849576072000
0	3203005780	1.534	42433880000
0	3205992737	1.535	1825161560000
0	3209001225	1.536	6214428320000
0	3212030812	1.537	2423556056000
0	3215075254	1.538	1817607416000
0	3218121017	1.539	2877062240000
0	3221171934	1.54	3633372120000
0	3224213787	1.541	1815465600000
0	3227235945	1.542	1854865888000
0	3230258588	1.543	3721624312000
0	3233291770	1.544	4441330840000
0	3236354648	1.545	1836782744000
0	3239405718	1.546	92031304000
0	3242433646	1.547	4422251704000
0	3245454256	1.548	39926672000
0	3248477294	1.549	68315632000
0	3251515602	1.55	40919048000
0	3254570085	1.551	263742096000
0	3257626609	1.552	1854676504000
0	3260670271	1.553	2615039824000
0	3263697191	1.554	2617040464000
0	3266730982	1.555	2613031840000
0	3269770047	1.556	259084600000
0	3272793448	1.557	841369600000
0	3275783005	1.558	3603094976000
0	3278809521	1.559	61636888000
0	3281796395	1.56	37430536000
0	3284792048	1.561	47728224000
0	3287769324	1.562	1829498504000
0	3290740390	1.563	1040650856000
0	3293747444	1.564	113169464000
0	3296741596	1.565	4441248816000
0	3299713639	1.566	830774104000
0	3302743792	1.567	1134112464000
0	3305745542	1.568	1830061728000
0	3308757932	1.569	2048302128000
0	3311760154	1.57	76175312000
0	3314789246	1.571	5401512032000
0	3317820557	1.572	43084472000
0	3320876276	1.573	38964992000
0	3323925488	1.574	837314800000
0	3326971392	1.575	1884061144000
0	3330018177	1.576	2070901264000
0	3333029474	1.577	2610618440000
0	3336060965	1.578	4055762136000
0	3339099935	1.579	3877798880000
0	3342108344	1.58	1826760200000
0	3345111876	1.581	838607752000
0	3348135891	1.582	52534912000
0	3351144912	1.583	4379391280000
0	3354150929	1.584	3417863632000
0	3357173383	1.585	2260816904000
0	3360187148	1.586	2624955848000
0	3363218006	1.587	3045333672000
0	3366241312	1.588	36406904000
0	3369257378	1.589	822208008000
0	3372267498	1.59	35420232000
0	3375270924	1.591	89625688000
0	3378300130	1.592	2635909272000
0	3381316650	1.593	6202850752000
0	3384322658	1.594	1821473440000
0	3387313072	1.595	856404816000
0	3390326223	1.596	825654856000
0	3393319743	1.597	931659032000
0	3396363437	1.598	4406776752000
0	3399388616	1.599	851352696000
0	3402404369	1.6	53949584000
0	3405409007	1.601	39365928000
0	3408439303	1.602	1828568424000
0	3411449314	1.603	839523552000
0	3414452473	1.604	32184648000
0	3417447840	1.605	865089992000
0	3420455365	1.606	252479776000
0	3423443406	1.607	1852977656000
0	3426413429	1.608	3394928112000
0	3429384011	1.609	1080965904000
0	3432372486	1.61	274909184000
0	3435372570	1.611	1265840352000
0	3438375808	1.612	827717344000
0	3441359482	1.613	1875791512000
0	3444349224	1.614	1825144552000
0	3447319654	1.615	3613558000000
0	3450282593	1.616	1054794560000
0	3453236001	1.617	4405399984000
0	3456203325	1.618	89351480000
0	3459164485	1.619	71206848000
0	3462152390	1.62	71625264000
0	3465145139	1.621	1957676904000
0	3468123540	1.622	837493536000
0	3471086758	1.623	79641568000
0	3474034697	1.624	32359024000
0	3476969635	1.625	4617002512000
0	3479942284	1.626	2917005088000
0	3482918149	1.627	2065242752000
0	3485890737	1.628	2043163336000
0	3488878016	1.629	3663873384000
0	3491872452	1.63	874468408000
0	3494879255	1.631	256401656000
0	3497858754	1.632	1870019712000
0	3500850930	1.633	3415985640000
0	3503818866	1.634	820641056000
0	3506792959	1.635	3621845072000
0	3509794698	1.636	44509808000
0	3512765494	1.637	4405216000000
0	3515741963	1.638	3888782296000
0	3518713160	1.639	50191000000
0	3521698039	1.64	1839433704000
0	3524666933	1.641	1614866696000
0	3527692253	1.642	2422375168000
0	3530720932	1.643	1710011264000
0	3533728963	1.644	31300800000
0	3536740202	1.645	1835116488000
0	3539760055	1.646	52245312000
0	3542799354	1.647	1846301808000
0	3545815496	1.648	3607127576000
0	3548818489	1.649	878984704000
0	3551804553	1.65	56918832000
0	3554763247	1.651	248191616000
0	3557722732	1.652	5411357120000
0	3560694287	1.653	1810251544000
0	3563651390	1.654	4410032896000
0	3566620251	1.655	59225024000
0	3569591591	1.656	111134032000
0	3572547764	1.657	826408728000
0	3575547191	1.658	39920512000
0	3578544600	1.659	7201753768000
0	3581545737	1.66	1835283304000
0	3584527842	1.661	2255471176000
0	3587520294	1.662	2610005456000
0	3590493175	1.663	3607286392000
0	3593455048	1.664	36338968000
0	3596395546	1.665	113646408000
0	3599331671	1.666	487693888000
0	3602283334	1.667	684570248000
0	3605263310	1.668	258189816000
0	3608219640	1.669	1822041824000
0	3611183735	1.67	79676368000
0	3614145836	1.671	2866473232000
0	3617121342	1.672	333616888000
0	3620134485	1.673	54900944000
0	3623140048	1.674	1853487840000
0	3626160062	1.675	3613499232000
0	3629160810	1.676	838912800000
0	3632172925	1.677	105161712000
0	3635177129	1.678	287932304000
0	3638194507	1.679	2667121304000
0	3641179988	1.68	1275981128000
0	3644199866	1.681	6245039320000
0	3647238633	1.682	2626178000000
0	3650306227	1.683	2604330184000
0	3653351830	1.684	2052035848000
0	3656390816	1.685	4413890624000
0	3659426694	1.686	519308568000
0	3662472493	1.687	35230952000
0	3665500726	1.688	52889888000
0	3668572463	1.689	58048168000
0	3671618212	1.69	2623185296000
0	3674639230	1.691	253501464000
0	3677695686	1.692	65113752000
0	3680764853	1.693	3402349560000
0	3683833343	1.694	262283440000
0	3686884685	1.695	6198027024000
0	3689911316	1.696	294179280000
0	3692967385	1.697	3610517680000
0	3695999821	1.698	27090032000
0	3699027660	1.699	2049865920000
0	3702080999	1.7	3856695240000
0	3705140846	1.701	3395729744000
0	3708207415	1.702	1816051880000
0	3711244806	1.703	1830445624000
0	3714295376	1.704	2621520848000
0	3717364802	1.705	4620825760000
0	3720414989	1.706	1825273848000
0	3723467104	1.707	1849487416000
0	3726518171	1.708	257053328000
0	3729583019	1.709	3625688792000
0	3732665435	1.71	3489664736000
0	3735721814	1.711	847550504000
0	3738759078	1.712	63000440000
0	3741783913	1.713	1939938456000
0	3744787827	1.714	38646272000
0	3747778659	1.715	1967305728000
0	3750742554	1.716	828927104000
0	3753718793	1.717	130189192000
0	3756736051	1.718	3620663536000
0	3759725656	1.719	244241776000
0	3762750722	1.72	3602934552000
0	3765727824	1.721	829092952000
0	3768721299	1.722	1838844192000
0	3771715674	1.723	3404887752000
0	3774703699	1.724	2840192120000
0	3777698224	1.725	2599569416000
0	3780686632	1.726	49625496000
0	3783651305	1.727	114694984000
0	3786602940	1.728	253436920000
0	3789570942	1.729	1835878336000
0	3792550682	1.73	3855424344000
0	3795525535	1.731	46893288000
0	3798525734	1.732	2071260976000
0	3801526371	1.733	1835251056000
0	3804532015	1.734	51135072000
0	3807514647	1.735	270378872000
0	3810505141	1.736	1852201112000
0	3813491264	1.737	65291832000
0	3816483897	1.738	2036253888000
0	3819491824	1.739	2139699152000
0	3822511185	1.74	3841210272000
0	3825538838	1.741	812931632000
0	3828553230	1.742	2824098072000
0	3831582273	1.743	63450128000
0	3834614992	1.744	47361936000
0	3837620364	1.745	826048016000
0	3840611429	1.746	280601232000
0	3843579641	1.747	30831744000
0	3846584441	1.748	34172368000
0	3849601897	1.749	2054414784000
0	3852643963	1.75	3622898992000
0	3855700464	1.751	60805312000
0	3858755215	1.752	91217400000
0	3861797964	1.753	1820778928000
0	3864834135	1.754	1815145184000
0	3867879507	1.755	48481016000
0	3870930726	1.756	2046320384000
0	3873972266	1.757	44609088000
0	3877015141	1.758	39751704000
0	3880048818	1.759	840850528000
0	3883118857	1.76	48996016000
0	3886218750	1.761	852193496000
0	3889318911	1.762	37207704000
0	3892409953	1.763	1896232488000
0	3895482381	1.764	1821068344000
0	3898559143	1.765	97459984000
0	3901625611	1.766	45180872000
0	3904685444	1.767	1610917776000
0	3907743686	1.768	1067578920000
0	3910780357	1.769	34503952000
0	3913845251	1.77	5611752104000
0	3916917205	1.771	1823289208000
0	3919975641	1.772	1832222144000
0	3923010386	1.773	838216584000
0	3926053266	1.774	2054060760000
0	3929099048	1.775	29339728000
0	3932125001	1.776	1048604224000
0	3935162092	1.777	1821513632000
0	3938202516	1.778	24025728000
0	3941220054	1.779	3629377752000
0	3944237167	1.78	51064184000
0	3947271853	1.781	25164640000
0	3950317828	1.782	2616001184000
0	3953378971	1.783	3834062120000
0	3956442141	1.784	2063374480000
0	3959495993	1.785	830955600000
0	3962561601	1.786	65414928000
0	3965632908	1.787	1060675240000
0	3968698474	1.788	42721272000
0	3971765479	1.789	2050488984000
0	3974828385	1.79	47276280000
0	3977919979	1.791	857958896000
0	3980994073	1.792	39101240000
0	3984045604	1.793	1835489464000
0	3987071848	1.794	3603105368000
0	3990074688	1.795	846891376000
0	3993082779	1.796	834590208000
0	3996091460	1.797	46538472000
0	3999134743	1.798	1832009504000
0	4002172001	1.799	1831791576000
0	4005198499	1.8	3671305528000
0	4008228363	1.801	2678463880000
0	4011279855	1.802	1850780416000
0	4014342927	1.803	1035864696000
0	4017411924	1.804	15306248000
0	4020466948	1.805	1827126888000
0	4023564341	1.806	2256499392000
0	4026671888	1.807	43879976000
0	4029779250	1.808	273506928000
0	4032877170	1.809	29837984000
0	4035959056	1.81	1814535976000
0	4039033319	1.811	2062194032000
0	4042127217	1.812	890554240000
0	4045213539	1.813	2609506328000
0	4048334705	1.814	1824652656000
0	4051469223	1.815	844577608000
0	4054567569	1.816	1046735768000
0	4057657652	1.817	58333568000
0	4060725939	1.818	930035144000
0	4063811525	1.819	3602870208000
0	4066925675	1.82	5390017568000
0	4070020695	1.821	3605993560000
0	4073124947	1.822	837452504000
0	4076270002	1.823	1831150984000
0	4079420401	1.824	1629129088000
0	4082578854	1.825	825627080000
0	4085739186	1.826	2834032536000
0	4088888489	1.827	34209096000
0	4092042007	1.828	1815789088000
0	4095178705	1.829	52303248000
0	4098296928	1.83	2621101584000
0	4101413641	1.831	4392409384000
0	4104524626	1.832	1822324560000
0	4107673336	1.833	776465632000
0	4110846847	1.834	2056754176000
0	4114025583	1.835	30532048000
0	4117193807	1.836	832040688000
0	4120339545	1.837	2054219040000
0	4123496250	1.838	2607817440000
0	4126651568	1.839	3641446576000
0	4129838012	1.84	2612999056000
0	4133008952	1.841	31751664000
0	4136155847	1.842	2637554728000
0	4139315015	1.843	4393963016000
0	4142471288	1.844	3630659288000
0	4145634836	1.845	3611081880000
0	4148792939	1.846	39396808000
0	4151934127	1.847	2038024424000
0	4155082254	1.848	50764328000
0	4158225876	1.849	33101304000
0	4161393141	1.85	556382912000
0	4164540547	1.851	124936096000
0	4167641282	1.852	32893048000
0	4170733429	1.853	49805032000
0	4173865075	1.854	3604788448000
0	4176998731	1.855	2593401088000
0	4180103359	1.856	3626064512000
0	4183202551	1.857	15766280000
0	4186296537	1.858	1042118336000
0	4189371035	1.859	256833336000
0	4192444071	1.86	286727968000
0	4195512278	1.861	1076144416000
0	4198596968	1.862	856062320000
0	4201652691	1.863	817413296000
0	4204711783	1.864	836037208000
0	4207797514	1.865	4608759344000
0	4210873560	1.866	1822680928000
0	4213939818	1.867	3606847272000
0	4217020114	1.868	46841512000
0	4220095146	1.869	1829391024000
0	4223183003	1.87	2604861872000
0	4226263381	1.871	1844020856000
0	4229307761	1.872	2824514464000
0	4232409699	1.873	1859759992000
0	4235530330	1.874	825388024000
0	4238634848	1.875	848051960000
0	4241727779	1.876	69357720000
0	4244796290	1.877	3599399008000
0	4247881938	1.878	833858096000
0	4250982566	1.879	29207984000
0	4254069458	1.88	48442064000
0	4257173782	1.881	257136496000
0	4260283911	1.882	37524456000
0	4263376597	1.883	844415280000
0	4266490321	1.884	52004016000
0	4269606796	1.885	856333352000
0	4272746145	1.886	1831763944000
0	4275903992	1.887	1035572088000
0	4279068576	1.888	46275920000
0	4282231356	1.889	33450976000
0	4285407533	1.89	1678790632000
0	4288564478	1.891	1832192080000
0	4291718458	1.892	1626210976000
0	4294870129	1.893	2548695408000
0	4298057721	1.894	1840251464000
0	4301226281	1.895	905285720000
0	4304381344	1.896	58771744000
0	4307537539	1.897	809569888000
0	4310707332	1.898	53242432000
0	4313874266	1.899	3644157320000
0	4317053258	1.9	2047126296000
0	4320228379	1.901	1819899248000
0	4323408354	1.902	37006960000
0	4326598157	1.903	289270392000
0	4329786515	1.904	258409848000
0	4332966546	1.905	3634055992000
0	4336150933	1.906	97127968000
0	4339310517	1.907	828570104000
0	4342471021	1.908	1823869800000
0	4345637181	1.909	2454075472000
0	4348796865	1.91	1825717912000
0	4351948473	1.911	1858617576000
0	4355050670	1.912	92764432000
0	4358164404	1.913	3849065216000
0	4361266645	1.914	486222080000
0	4364381310	1.915	270996696000
0	4367485168	1.916	2034126592000
0	4370566995	1.917	1820090160000
0	4373616957	1.918	850965560000
0	4376695966	1.919	2044119312000
0	4379778791	1.92	34735512000
0	4382875557	1.921	1667933048000
0	4385966421	1.922	63360400000
0	4389041874	1.923	2617830736000
0	4392156488	1.924	854426808000
0	4395259947	1.925	3641765040000
0	4398383926	1.926	3612728976000
0	4401530420	1.927	320494288000
0	4404650224	1.928	44948072000
0	4407800083	1.929	2623392448000
0	4410920323	1.93	88422648000
0	4414052082	1.931	1854999464000
0	4417165051	1.932	264304992000
0	4420276839	1.933	1817371232000
0	4423385714	1.934	22255344000
0	4426480238	1.935	1885808072000
0	4429587666	1.936	2113462600000
0	4432709868	1.937	2617624936000
0	4435823730	1.938	35006912000
0	4438924857	1.939	259594576000
0	4442067098	1.94	2622090928000
0	4445199826	1.941	125727352000
0	4448331526	1.942	2615714224000
0	4451484138	1.943	35658352000
0	4454632887	1.944	4421063400000
0	4457773373	1.945	63653952000
0	4460931964	1.946	2055308648000
0	4464068965	1.947	1847022384000
0	4467200016	1.948	274701040000
0	4470356198	1.949	1828689152000
0	4473490293	1.95	77242080000
0	4476639556	1.951	64476440000
0	4479801406	1.952	843770568000
0	4482949301	1.953	270608584000
0	4486122312	1.954	4523522952000
0	4489294890	1.955	1648338784000
0	4492447491	1.956	817935816000
0	4495597803	1.957	907874648000
0	4498757425	1.958	841404648000
0	4501892977	1.959	42308768000
0	4505049153	1.96	3627989880000
0	4508202412	1.961	825788128000
0	4511327850	1.962	2841265280000
0	4514457270	1.963	4605513856000
0	4517593616	1.964	5182105056000
0	4520728616	1.965	835807992000
0	4523900385	1.966	1917405408000
0	4527069495	1.967	922583808000
0	4530229873	1.968	2034068456000
0	4533389267	1.969	3589506640000
0	4536538875	1.97	67179728000
0	4539692682	1.971	294512048000
0	4542861549	1.972	35297712000
0	4546011258	1.973	1815900976000
0	4549174376	1.974	1896915976000
0	4552319351	1.975	1823903960000
0	4555480626	1.976	2611027704000
0	4558642766	1.977	1823932136000
0	4561776422	1.978	44046632000
0	4564918391	1.979	832930056000
0	4568034872	1.98	50751528000
0	4571155698	1.981	49851432000
0	4574289953	1.982	828441184000
0	4577445521	1.983	3619021536000
0	4580589583	1.984	30855872000
0	4583740186	1.985	3667186568000
0	4586908129	1.986	3827271976000
0	4590069729	1.987	2029367552000
0	4593219304	1.988	118757136000
0	4596368035	1.989	826298296000
0	4599542766	1.99	264179024000
0	4602719364	1.991	4390141816000
0	4605877356	1.992	2610627936000
0	4609064954	1.993	272638976000
0	4612226908	1.994	52884208000
0	4615360643	1.995	42666800000
0	4618506999	1.996	37032456000
0	4621622931	1.997	1816466664000
0	4624728148	1.998	1050003192000
0	4627836055	1.999	1828513096000
0	4630953424	2	3408750840000
0	4634068028	2.001	52474040000
0	4637184248	2.002	1843243440000
0	4640318569	2.003	2038925416000
0	4643445864	2.004	3641922616000
0	4646598631	2.005	836966152000
0	4649735938	2.006	864545648000
0	4652869758	2.007	1056593632000
0	4656011486	2.008	97154312000
0	4659156871	2.009	2620523440000
0	4662287892	2.01	1829657872000
0	4665416941	2.011	46547424000
0	4668547190	2.012	55765376000
0	4671664352	2.013	1818411392000
0	4674803725	2.014	42906448000
0	4677952822	2.015	1839834672000
0	4681120716	2.016	5196509440000
0	4684286846	2.017	4608309392000
0	4687430101	2.018	5404282128000
0	4690571730	2.019	4389909480000
0	4693729617	2.02	269294576000
0	4696874841	2.021	1831828728000
0	4700022001	2.022	1846933160000
0	4703139288	2.023	33732128000
0	4706240283	2.024	5420044392000
0	4709365411	2.025	1849334576000
0	4712477986	2.026	4392095528000
0	4715605452	2.027	2622756944000
0	4718746036	2.028	837861816000
0	4721888479	2.029	44852272000
0	4725054164	2.03	1813151328000
0	4728186572	2.031	836976328000
0	4731317859	2.032	277668208000
0	4734460758	2.033	1844489184000
0	4737612498	2.034	2042728208000
0	4740785996	2.035	3611610880000
0	4743939311	2.036	39880072000
0	4747105927	2.037	3602240024000
0	4750259652	2.038	891381072000
0	4753425887	2.039	5461353320000
0	4756584142	2.04	1807155192000
0	4759712999	2.041	1833088968000
0	4762836825	2.042	50385904000
0	4765990702	2.043	30839176000
0	4769127228	2.044	1619002336000
0	4772244016	2.045	46353408000
0	4775377175	2.046	2632816736000
0	4778504619	2.047	50310224000
0	4781626464	2.048	1163713136000
0	4784746161	2.049	29981080000
0	4787854249	2.05	3605425728000
0	4790994164	2.051	3619213336000
0	4794117658	2.052	2051226288000
0	4797235428	2.053	37489888000
0	4800370981	2.054	1820345360000
0	4803499778	2.055	3612016624000
0	4806610588	2.056	825792560000
0	4809722083	2.057	44787184000
0	4812828311	2.058	833165472000
0	4815936965	2.059	3474210864000
0	4819066765	2.06	3641147704000
0	4822188804	2.061	1624151512000
0	4825338878	2.062	3617879376000
0	4828482999	2.063	2822729944000
0	4831641313	2.064	836128360000
0	4834791854	2.065	44203144000
0	4837959347	2.066	57205280000
0	4841129478	2.067	26433864000
0	4844288708	2.068	51876552000
0	4847440783	2.069	1035314136000
0	4850573002	2.07	3595509608000
0	4853730927	2.071	52989480000
0	4856919185	2.072	51403176000
0	4860104292	2.073	57463752000
0	4863288911	2.074	824925280000
0	4866463968	2.075	4631079832000
0	4869646784	2.076	3836476344000
0	4872825814	2.077	2403642336000
0	4875992304	2.078	1828994552000
0	4879155508	2.079	1826066112000
0	4882362660	2.08	871478384000
0	4885599195	2.081	3631915544000
0	4888826280	2.082	833327488000
0	4892034153	2.083	34239072000
0	4895209235	2.084	3391243344000
0	4898414719	2.085	1041755576000
0	4901603614	2.086	3402322104000
0	4904796458	2.087	56856336000
0	4907994197	2.088	822644400000
0	4911194269	2.089	48864536000
0	4914383361	2.09	49814896000
0	4917596432	2.091	1821907344000
0	4920806456	2.092	847108888000
0	4923998471	2.093	46994064000
0	4927191943	2.094	2622733504000
0	4930382621	2.095	3619214696000
0	4933586624	2.096	1821664856000
0	4936794798	2.097	2066008856000
0	4939989744	2.098	838190528000
0	4943199698	2.099	59414864000
0	4946389756	2.1	1824727192000
0	4949593267	2.101	30677672000
0	4952762872	2.102	1822134896000
0	4955947527	2.103	43880920000
0	4959124255	2.104	1829176536000
0	4962311765	2.105	816417656000
0	4965510825	2.106	5185197896000
0	4968716801	2.107	33865784000
0	4971908875	2.108	32861144000
0	4975088233	2.109	2056447632000
0	4978274252	2.11	52287584000
0	4981422938	2.111	829568832000
0	4984567525	2.112	1822394904000
0	4987701113	2.113	38554224000
0	4990864627	2.114	56665584000
0	4994038198	2.115	1841850296000
0	4997225482	2.116	1876835776000
0	5000425364	2.117	39674880000
0	5003596114	2.118	826506288000
0	5006773947	2.119	33247648000
0	5009957752	2.12	2263727024000
0	5013152344	2.121	53811792000
0	5016351876	2.122	2065786096000
0	5019561593	2.123	41992048000
0	5022765490	2.124	2817881200000
0	5025972880	2.125	840409752000
0	5029190570	2.126	58180064000
0	5032402496	2.127	828735512000
0	5035610177	2.128	2885581064000
0	5038807823	2.129	398972392000
0	5041983631	2.13	45513952000
0	5045211616	2.131	4625710848000
0	5048425395	2.132	32289888000
0	5051630554	2.133	31115472000
0	5054846891	2.134	1836691112000
0	5058078077	2.135	44499496000
0	5061324136	2.136	1114314568000
0	5064579722	2.137	1814893112000
0	5067839635	2.138	276274808000
0	5071106973	2.139	6181274600000
0	5074383847	2.14	835187072000
0	5077662698	2.141	44902032000
0	5080947326	2.142	285492824000
0	5084221340	2.143	1907812952000
0	5087517861	2.144	3823276256000
0	5090791663	2.145	42089992000
0	5094070498	2.146	55847712000
0	5097350077	2.147	3614383088000
0	5100674432	2.148	63719992000
0	5104027680	2.149	1849195008000
0	5107332469	2.15	1873711600000
0	5110651971	2.151	259221216000
0	5113946200	2.152	842324184000
0	5117232018	2.153	103544072000
0	5120525872	2.154	2627655840000
0	5123783296	2.155	1814545256000
0	5127061934	2.156	4485401016000
0	5130354820	2.157	47324952000
0	5133636835	2.158	96728680000
0	5136948582	2.159	1322387144000
0	5140258689	2.16	1828623312000
0	5143578141	2.161	260785952000
0	5146888398	2.162	7185812992000
0	5150202436	2.163	1821716824000
0	5153536069	2.164	53204680000
0	5156816319	2.165	53025784000
0	5160080083	2.166	2626989032000
0	5163382762	2.167	833308504000
0	5166697676	2.168	160483496000
0	5170006192	2.169	2829232928000
0	5173335605	2.17	1822083600000
0	5176649928	2.171	46419736000
0	5179927544	2.172	2258434280000
0	5183196005	2.173	1890824048000
0	5186468005	2.174	826788760000
0	5189763760	2.175	240833336000
0	5193057810	2.176	40078832000
0	5196353751	2.177	2686939736000
0	5199640629	2.178	2052277960000
0	5202907607	2.179	86823704000
0	5206183998	2.18	3612348352000
0	5209486781	2.181	1822722424000
0	5212750781	2.182	2035457896000
0	5215992668	2.183	38400736000
0	5219245438	2.184	495361672000
0	5222520601	2.185	3829996560000
0	5225825271	2.186	71193576000
0	5229127564	2.187	2637340056000
0	5232437345	2.188	3614025192000
0	5235743654	2.189	3840038160000
0	5239046295	2.19	1823452192000
0	5242373351	2.191	1859554808000
0	5245692833	2.192	2622233536000
0	5249039598	2.193	1634623760000
0	5252383074	2.194	1830993008000
0	5255730392	2.195	55846752000
0	5259061841	2.196	2050921760000
0	5262391279	2.197	4415378992000
0	5265693273	2.198	1265753080000
0	5269022603	2.199	1035745808000
0	5272342892	2.2	1842945576000
0	5275662510	2.201	1858341112000
0	5278985569	2.202	1826200320000
0	5282270322	2.203	827360376000
0	5285555216	2.204	2838236560000
0	5288827795	2.205	2110199136000
0	5292103216	2.206	5641341776000
0	5295373323	2.207	833385984000
0	5298645261	2.208	820937184000
0	5301916611	2.209	48710424000
0	5305179248	2.21	2660894232000
0	5308445311	2.211	836542912000
0	5311739814	2.212	1835819416000
0	5315037260	2.213	50000912000
0	5318348434	2.214	1831843464000
0	5321685064	2.215	261013616000
0	5325016355	2.216	3640007416000
0	5328295898	2.217	2041051840000
0	5331571957	2.218	1832740200000
0	5334861965	2.219	501786144000
0	5338164801	2.22	60682512000
0	5341468654	2.221	3409138904000
0	5344793171	2.222	3410286856000
0	5348123651	2.223	4479140520000
0	5351454052	2.224	92347856000
0	5354768340	2.225	827363064000
0	5358077222	2.226	1048836304000
0	5361389780	2.227	1823608424000
0	5364725891	2.228	829823432000
0	5368034833	2.229	107890088000
0	5371362146	2.23	3410663448000
0	5374685067	2.231	1841580040000
0	5377989238	2.232	2615317280000
0	5381264475	2.233	2052853896000
0	5384552645	2.234	1038192880000
0	5387839656	2.235	1927766120000
0	5391136838	2.236	1884085648000
0	5394450525	2.237	52810848000
0	5397796167	2.238	1831081384000
0	5401131132	2.239	45193808000
0	5404447465	2.24	2618493544000
0	5407770950	2.241	2697381464000
0	5411107174	2.242	57539584000
0	5414447460	2.243	1838264408000
0	5417752141	2.244	1840522280000
0	5421074784	2.245	33244360000
0	5424421434	2.246	31630592000
0	5427751154	2.247	1828957736000
0	5431094933	2.248	82814680000
0	5434427602	2.249	42334760000
0	5437756748	2.25	58530128000
0	5441102998	2.251	252497032000
0	5444470786	2.252	58675832000
0	5447829143	2.253	3615906160000
0	5451145827	2.254	3605773808000
0	5454473680	2.255	2628521328000
0	5457789057	2.256	1834170656000
0	5461091815	2.257	4398234456000
0	5464402881	2.258	57490504000
0	5467721887	2.259	44498320000
0	5471023465	2.26	2916827808000
0	5474299321	2.261	67937104000
0	5477601341	2.262	600103440000
0	5480899212	2.263	815894560000
0	5484187145	2.264	1901031272000
0	5487478711	2.265	4402769568000
0	5490761878	2.266	5395313168000
0	5494044606	2.267	3623161424000
0	5497305127	2.268	39403880000
0	5500603529	2.269	830735408000
0	5503888079	2.27	1835091144000
0	5507173413	2.271	6171614256000
0	5510434871	2.272	1849600888000
0	5513727752	2.273	1881953304000
0	5517016914	2.274	5186498032000
0	5520267110	2.275	1843393384000
0	5523527099	2.276	131395576000
0	5526765566	2.277	2038088432000
0	5530018494	2.278	1829410672000
0	5533275180	2.279	63767704000
0	5536543906	2.28	1822985480000
0	5539827357	2.281	1844365232000
0	5543150246	2.282	38437712000
0	5546467819	2.283	856096040000
0	5549778420	2.284	844445296000
0	5553076132	2.285	845961016000
0	5556369667	2.286	38596264000
0	5559662087	2.287	828064600000
0	5562940853	2.288	35903104000
0	5566204695	2.289	1858235136000
0	5569487586	2.29	926087536000
0	5572758020	2.291	2270583680000
0	5576010607	2.292	2617635352000
0	5579252351	2.293	330156080000
0	5582499618	2.294	1622361464000
0	5585731651	2.295	25665448000
0	5588975288	2.296	179627288000
0	5592209196	2.297	28046632000
0	5595450214	2.298	1828618256000
0	5598719953	2.299	852936720000
0	5601972405	2.3	257159064000
0	5605245783	2.301	1836637992000
0	5608489451	2.302	101577504000
0	5611725475	2.303	1607929728000
0	5614968393	2.304	244366416000
0	5618207644	2.305	83967632000
0	5621422774	2.306	55867568000
0	5624632999	2.307	829237328000
0	5627850082	2.308	6399622056000
0	5631064373	2.309	23764520000
0	5634296259	2.31	1065329792000
0	5637533484	2.311	1827251872000
0	5640772559	2.312	3623266152000
0	5644022007	2.313	685246272000
0	5647247611	2.314	95281728000
0	5650519002	2.315	40163288000
0	5653803118	2.316	1851143744000
0	5657103886	2.317	50884968000
0	5660411866	2.318	2611740568000
0	5663708947	2.319	266769128000
0	5666994131	2.32	2617148520000
0	5670285865	2.321	57476784000
0	5673560601	2.322	34742328000
0	5676846787	2.323	39100432000
0	5680136302	2.324	63450208000
0	5683430554	2.325	1669415152000
0	5686738106	2.326	1836591816000
0	5690028632	2.327	4406391176000
0	5693327425	2.328	28134432000
0	5696630294	2.329	827425208000
0	5699935943	2.33	2097967488000
0	5703236444	2.331	58279632000
0	5706545244	2.332	829331968000
0	5709866705	2.333	1639573288000
0	5713182164	2.334	836263768000
0	5716493528	2.335	2071398472000
0	5719833640	2.336	3629679208000
0	5723184153	2.337	53608640000
0	5726506001	2.338	44648352000
0	5729830190	2.339	55987616000
0	5733132862	2.34	47822208000
0	5736441853	2.341	2625260760000
0	5739747622	2.342	54687152000
0	5743048007	2.343	1053678152000
0	5746317659	2.344	1831763464000
0	5749600838	2.345	5212180568000
0	5752920771	2.346	833810592000
0	5756228708	2.347	3603928880000
0	5759519936	2.348	3835817296000
0	5762832840	2.349	2833867496000
0	5766133380	2.35	4400510440000
0	5769457399	2.351	44505168000
0	5772770222	2.352	262744648000
0	5776125485	2.353	46446264000
0	5779433033	2.354	45248616000
0	5782743066	2.355	1039152424000
0	5786060903	2.356	2684680752000
0	5789388147	2.357	838998048000
0	5792733155	2.358	1806321424000
0	5796047045	2.359	7160114800000
0	5799368792	2.36	29435512000
0	5802713663	2.361	2165383144000
0	5806042450	2.362	2611604312000
0	5809355447	2.363	47785696000
0	5812639532	2.364	1826892128000
0	5815938713	2.365	1837220440000
0	5819233446	2.366	3611774752000
0	5822535746	2.367	5397835392000
0	5825810612	2.368	841175168000
0	5829087288	2.369	1858413520000
[...]
4	30313922845	9.416	33948784000
4	30317392549	9.417	30612744000
4	30320876416	9.418	2623666320000
4	30324357029	9.419	1829964648000
4	30327835988	9.42	2831134880000
4	30331314767	9.421	260993456000
4	30334818760	9.422	4389354184000
4	30338334109	9.423	43873640000
4	30341837499	9.424	1834997312000
4	30345379068	9.425	41324160000
4	30348891172	9.426	69747832000
4	30352439299	9.427	310039512000
4	30355987509	9.428	2607589960000
4	30359506399	9.429	33733160000
4	30363012656	9.43	1069217912000
4	30366536844	9.431	1939649488000
4	30370049850	9.432	241483824000
4	30373558456	9.433	66282672000
4	30377065281	9.434	2626811440000
4	30380565480	9.435	89578976000
4	30384054609	9.436	829631400000
4	30387522770	9.437	3617692200000
4	30391007651	9.438	892729024000
4	30394476712	9.439	4410844864000
4	30397931164	9.44	56687584000
4	30401396021	9.441	3608630152000
4	30404867952	9.442	3618702976000
4	30408351203	9.443	1820043536000
4	30411829183	9.444	2063925880000
4	30415318973	9.445	35746184000
4	30418810082	9.446	47436040000
4	30422277156	9.447	46094576000
4	30425756260	9.448	1608608312000
4	30429218197	9.449	827112080000
4	30432670354	9.45	5468438168000
4	30436155563	9.451	5405080728000
4	30439633836	9.452	3615471528000
4	30443107558	9.453	1849958584000
4	30446564068	9.454	5677716256000
4	30449999385	9.455	61087944000
4	30453457594	9.456	45761528000
4	30456924353	9.457	34571432000
4	30460383018	9.458	1821873768000
4	30463837305	9.459	77785464000
4	30467311594	9.46	1837154312000
4	30470783553	9.461	257940312000
4	30474240150	9.462	66174032000
4	30477692194	9.463	1039444120000
4	30481160848	9.464	2611294432000
4	30484633661	9.465	273375848000
4	30488085126	9.466	4463463848000
4	30491535734	9.467	3625219552000
4	30494996265	9.468	1045229800000
4	30498421078	9.469	58052408000
4	30501884878	9.47	4417187408000
4	30505374417	9.471	106511896000
4	30508868834	9.472	686935728000
4	30512359227	9.473	1828810232000
4	30515818030	9.474	58089952000
4	30519257667	9.475	1821343752000
4	30522711613	9.476	3627846208000
4	30526151099	9.477	2057704872000
4	30529615855	9.478	2714937384000
4	30533089346	9.479	5391588600000
4	30536582333	9.48	2085461224000
4	30540092870	9.481	104513112000
4	30543633104	9.482	3598471216000
4	30547174093	9.483	1818195064000
4	30550723366	9.484	872881296000
4	30554236339	9.485	33690736000
4	30557774243	9.486	1833794448000
4	30561302208	9.487	1825171144000
4	30564823610	9.488	2050619296000
4	30568379801	9.489	37930000000
4	30571958417	9.49	817189880000
4	30575538732	9.491	816436688000
4	30579115128	9.492	3609242888000
4	30582725911	9.493	51920560000
4	30586349395	9.494	3409164776000
4	30589983704	9.495	813719672000
4	30593603330	9.496	28662240000
4	30597210499	9.497	330019616000
4	30600835418	9.498	3394808608000
4	30604431355	9.499	331551080000
4	30608033500	9.5	4420983304000
4	30611653750	9.501	2631547768000
4	30615257927	9.502	40819384000
4	30618857197	9.503	1821900032000
4	30622440445	9.504	1836876952000
4	30625989497	9.505	266291704000
4	30629555586	9.506	3625131520000
4	30633083195	9.507	2847367680000
4	30636621600	9.508	1886248056000
4	30640178919	9.509	1893181976000
4	30643730858	9.51	44181352000
4	30647257635	9.511	2040688824000
4	30650770618	9.512	824181616000
4	30654307838	9.513	279615920000
4	30657840401	9.514	1813312160000
4	30661392934	9.515	248756152000
4	30664927071	9.516	4286520504000
4	30668453743	9.517	1868450504000
4	30672001306	9.518	1629995624000
4	30675557863	9.519	3397042000000
4	30679082051	9.52	265461872000
4	30682625488	9.521	1867975568000
4	30686154345	9.522	42312128000
4	30689671565	9.523	1892277680000
4	30693200252	9.524	6193372280000
4	30696715864	9.525	3627525224000
4	30700245939	9.526	91769056000
4	30703741697	9.527	1833814496000
4	30707250310	9.528	39225760000
4	30710760775	9.529	1841346000000
4	30714245572	9.53	3458329032000
4	30717762024	9.531	1833269568000
4	30721278699	9.532	254060280000
4	30724792281	9.533	823258992000
4	30728285438	9.534	1821283408000
4	30731764329	9.535	3611671504000
4	30735254335	9.536	124284168000
4	30738752475	9.537	3664626216000
4	30742252607	9.538	2646419904000
4	30745741092	9.539	63163296000
4	30749241850	9.54	36768608000
4	30752717052	9.541	830709648000
4	30756200839	9.542	103130224000
4	30759714954	9.543	27866104000
4	30763220873	9.544	58066528000
4	30766725479	9.545	823303856000
4	30770230712	9.546	35571704000
4	30773712123	9.547	1828831920000
4	30777210217	9.548	2624524008000
4	30780719679	9.549	41017600000
4	30784223743	9.55	75064880000
4	30787706239	9.551	37964184000
4	30791187635	9.552	2625354960000
4	30794663999	9.553	97350536000
4	30798158610	9.554	1842350240000
4	30801679976	9.555	62494696000
4	30805151022	9.556	1608595024000
4	30808601645	9.557	53828160000
4	30812062040	9.558	1616791872000
4	30815526739	9.559	32202880000
4	30818978884	9.56	830981800000
4	30822448325	9.561	5409033200000
4	30825923654	9.562	553295576000
4	30829418481	9.563	1850241072000
4	30832908984	9.564	44527920000
4	30836392185	9.565	1879629016000
4	30839860182	9.566	1829038824000
4	30843348478	9.567	3609946480000
4	30846858379	9.568	891140520000
4	30850355129	9.569	2612039560000
4	30853857245	9.57	1886099608000
4	30857346129	9.571	3632041064000
4	30860830624	9.572	32371056000
4	30864337447	9.573	263248384000
4	30867823229	9.574	54841656000
4	30871321918	9.575	4403005616000
4	30874819991	9.576	4398220056000
4	30878333419	9.577	41913736000
4	30881847726	9.578	5378918888000
4	30885333890	9.579	2617941736000
4	30888834540	9.58	1900152208000
4	30892352522	9.581	1836169336000
4	30895847512	9.582	1844527424000
4	30899346940	9.583	39136304000
4	30902861254	9.584	2039886104000
4	30906367374	9.585	2600805776000
4	30909873248	9.586	1841996896000
4	30913396851	9.587	48441232000
4	30916922726	9.588	3615746520000
4	30920466764	9.589	2682979328000
4	30924000930	9.59	1848165440000
4	30927530255	9.591	270864240000
4	30931055441	9.592	1823016200000
4	30934575882	9.593	264343744000
4	30938100179	9.594	2624293944000
4	30941621388	9.595	285004128000
4	30945152127	9.596	1825478520000
4	30948676705	9.597	42199256000
4	30952205171	9.598	52165152000
4	30955748315	9.599	893197376000
4	30959304048	9.6	3599691352000
4	30962835121	9.601	38740376000
4	30966371114	9.602	1046383360000
4	30969881906	9.603	54198224000
4	30973378728	9.604	1113720904000
4	30976897827	9.605	1849941504000
4	30980439169	9.606	39376352000
4	30983984382	9.607	250890344000
4	30987512061	9.608	1836011416000
4	30991037664	9.609	821682440000
4	30994551566	9.61	1907806184000
4	30998085027	9.611	829368616000
4	31001630283	9.612	1840153920000
4	31005171558	9.613	2697724880000
4	31008698643	9.614	37502984000
4	31012222850	9.615	2032706712000
4	31015738412	9.616	5049670256000
4	31019288064	9.617	2837963336000
4	31022813514	9.618	1821907064000
4	31026330446	9.619	51791296000
4	31029841552	9.62	3632706712000
4	31033345086	9.621	35220544000
4	31036848848	9.622	25815112000
4	31040373219	9.623	265375992000
4	31043907125	9.624	844374096000
4	31047423527	9.625	7175069360000
4	31050929746	9.626	1825188888000
4	31054423856	9.627	2064682432000
4	31057892507	9.628	1822709120000
4	31061353613	9.629	1037754384000
4	31064814614	9.63	79488896000
4	31068284955	9.631	102172232000
4	31071727446	9.632	2633756232000
4	31075178321	9.633	55391408000
4	31078614173	9.634	1840884096000
4	31082065051	9.635	2038212776000
4	31085516050	9.636	34863608000
4	31088973457	9.637	95140912000
4	31092431753	9.638	1835477944000
4	31095859187	9.639	479837528000
4	31099314729	9.64	1831040112000
4	31102743357	9.641	1039737784000
4	31106196023	9.642	3609683776000
4	31109656775	9.643	67832880000
4	31113144669	9.644	3609356384000
4	31116618881	9.645	38166088000
4	31120108908	9.646	2052803240000
4	31123584601	9.647	2041852640000
4	31127028762	9.648	7245797296000
4	31130493415	9.649	108365392000
4	31133949717	9.65	42303016000
4	31137420692	9.651	1843550112000
4	31140890184	9.652	3608637112000
4	31144346330	9.653	842640016000
4	31147816805	9.654	135440320000
4	31151284134	9.655	833934648000
4	31154768815	9.656	2635221664000
4	31158246586	9.657	268354336000
4	31161726394	9.658	1877546064000
4	31165181993	9.659	45058472000
4	31168634071	9.66	1857602648000
4	31172079238	9.661	3671685032000
4	31175513852	9.662	1035431312000
4	31178971774	9.663	1894991056000
4	31182439100	9.664	2344781760000
4	31185892559	9.665	839240072000
4	31189345517	9.666	838811704000
4	31192785052	9.667	252470680000
4	31196261124	9.668	2616914832000
4	31199773788	9.669	2616515056000
4	31203292639	9.67	1817133784000
4	31206822871	9.671	46549512000
4	31210370553	9.672	268825832000
4	31213936025	9.673	1849601472000
4	31217474599	9.674	1821394520000
4	31221008353	9.675	835997992000
4	31224555874	9.676	1837212024000
4	31228094260	9.677	857874544000
4	31231602441	9.678	260467640000
4	31235112690	9.679	5172358600000
4	31238619784	9.68	45993712000
4	31242100870	9.681	2046795296000
4	31245574568	9.682	37139624000
4	31249030693	9.683	1831054048000
4	31252489966	9.684	46596456000
4	31255936777	9.685	65019592000
4	31259378921	9.686	858237848000
4	31262862800	9.687	3828941016000
4	31266316731	9.688	256269856000
4	31269743976	9.689	833524488000
4	31273136740	9.69	49487608000
4	31276523090	9.691	3413093040000
4	31279900851	9.692	2424262728000
4	31283295026	9.693	45843176000
4	31286670178	9.694	1854335880000
4	31290049766	9.695	488940984000
4	31293445717	9.696	122277216000
4	31296833225	9.697	861675048000
4	31300196668	9.698	1817027272000
4	31303563345	9.699	48952688000
4	31306959025	9.7	7192719896000
4	31310359822	9.701	66088672000
4	31313746918	9.702	1845870304000
4	31317125953	9.703	48435848000
4	31320495828	9.704	123054704000
4	31323878870	9.705	2832804616000
4	31327244932	9.706	824844000000
4	31330621006	9.707	2056000472000
4	31334005065	9.708	264733032000
4	31337419054	9.709	54546600000
4	31340798449	9.71	1906317952000
4	31344182173	9.711	833563792000
4	31347565469	9.712	1960041752000
4	31350933265	9.713	828220560000
4	31354330141	9.714	855385448000
4	31357705210	9.715	1814179552000
4	31361062452	9.716	44043328000
4	31364432409	9.717	835863096000
4	31367809200	9.718	2610233344000
4	31371170939	9.719	1850162576000
4	31374526340	9.72	3638205208000
4	31377890091	9.721	866451600000
4	31381237257	9.722	1810478144000
4	31384600029	9.723	1823979496000
4	31387978743	9.724	2035980448000
4	31391365966	9.725	35097800000
4	31394747733	9.726	1832361248000
4	31398138726	9.727	820255320000
4	31401521736	9.728	3597272392000
4	31404908585	9.729	839200128000
4	31408306952	9.73	156624720000
4	31411710639	9.731	4650301840000
4	31415112880	9.732	61042952000
4	31418517882	9.733	1823637328000
4	31421910915	9.734	1821965440000
4	31425306544	9.735	2101889616000
4	31428690681	9.736	3530300200000
4	31432062127	9.737	2625824088000
4	31435474086	9.738	1848464280000
4	31438892803	9.739	2334431608000
4	31442331501	9.74	70207360000
4	31445753061	9.741	821799152000
4	31449180584	9.742	56910232000
4	31452630049	9.743	55047056000
4	31456085299	9.744	865323944000
4	31459496107	9.745	824047136000
4	31462924804	9.746	60667256000
4	31466348819	9.747	894646328000
4	31469775362	9.748	54463944000
4	31473173133	9.749	256524184000
4	31476598693	9.75	5402293432000
4	31479983415	9.751	825389744000
4	31483383245	9.752	2045786664000
4	31486797146	9.753	815869336000
4	31490199297	9.754	79094816000
4	31493604799	9.755	101673256000
4	31497032819	9.756	5617657488000
4	31500497681	9.757	1836746312000
4	31503967034	9.758	828989192000
4	31507438819	9.759	45794496000
4	31510888082	9.76	2058977808000
4	31514362042	9.761	1046850048000
4	31517817347	9.762	2617450232000
4	31521266538	9.763	1830239152000
4	31524704360	9.764	3840841056000
4	31528157698	9.765	27861448000
4	31531591280	9.766	2895447040000
4	31535042597	9.767	61228920000
4	31538467522	9.768	3434874224000
4	31541907657	9.769	1834965080000
4	31545338108	9.77	263203792000
4	31548765725	9.771	1826641656000
4	31552187395	9.772	824131440000
4	31555619182	9.773	845304632000
4	31559037845	9.774	1061902296000
4	31562466374	9.775	831711072000
4	31565895247	9.776	1824840464000
4	31569321379	9.777	2034365248000
4	31572767877	9.778	2066204040000
4	31576234566	9.779	26248408000
4	31579711160	9.78	2636730304000
4	31583185705	9.781	1840742416000
4	31586653328	9.782	2291416520000
4	31590100792	9.783	39581128000
4	31593589568	9.784	1639128640000
4	31597092527	9.785	1844197544000
4	31600598727	9.786	823842272000
4	31604095066	9.787	1614459560000
4	31607606684	9.788	55689488000
4	31611097296	9.789	109570736000
4	31614576475	9.79	33323552000
4	31618061889	9.791	1308035312000
4	31621554026	9.792	3606069072000
4	31625018567	9.793	1818337608000
4	31628496918	9.794	2047410664000
4	31631970583	9.795	1881000752000
4	31635458597	9.796	32389248000
4	31638955224	9.797	843324824000
4	31642420715	9.798	2037722480000
4	31645883627	9.799	1038605440000
4	31649324605	9.8	846211208000
4	31652758463	9.801	28740360000
4	31656230663	9.802	117262800000
4	31659720786	9.803	834972352000
4	31663214439	9.804	1077211080000
4	31666720164	9.805	3607893448000
4	31670200909	9.806	2617040472000
4	31673682730	9.807	3643408896000
4	31677165704	9.808	825710520000
4	31680633190	9.809	38184376000
4	31684132835	9.81	3637988296000
4	31687632237	9.811	279719968000
4	31691122620	9.812	2045801392000
4	31694591677	9.813	96012160000
4	31698082773	9.814	46166416000
4	31701543928	9.815	902329784000
4	31704982096	9.816	2639243432000
4	31708432344	9.817	3600155128000
4	31711909896	9.818	3697398104000
4	31715397743	9.819	260092776000
4	31718879835	9.82	53461224000
4	31722374406	9.821	38019392000
4	31725842688	9.822	2632260544000
4	31729319447	9.823	821977472000
4	31732778788	9.824	256876832000
4	31736231413	9.825	1813569416000
4	31739701722	9.826	2630139456000
4	31743142996	9.827	3608505552000
4	31746599722	9.828	3836870008000
4	31750061116	9.829	4397947088000
4	31753542310	9.83	1627148568000
4	31757048453	9.831	112261152000
4	31760557460	9.832	1066162432000
4	31764090965	9.833	851138808000
4	31767596939	9.834	50164752000
4	31771102647	9.835	312884520000
4	31774613533	9.836	831062144000
4	31778113781	9.837	40524760000
4	31781653068	9.838	1820843240000
4	31785172004	9.839	5388371776000
4	31788668535	9.84	1852883704000
4	31792191851	9.841	1608710040000
4	31795696247	9.842	3613500560000
4	31799179991	9.843	4468389952000
4	31802671462	9.844	1823927240000
4	31806170855	9.845	47218440000
4	31809652473	9.846	1054336672000
4	31813144487	9.847	2662628128000
4	31816632461	9.848	47075384000
4	31820129838	9.849	2052664752000
4	31823614934	9.85	3841865864000
4	31827100532	9.851	6236730992000
4	31830585153	9.852	2629780024000
4	31834078355	9.853	38542152000
4	31837568727	9.854	1962733928000
4	31841075883	9.855	836957848000
4	31844614475	9.856	1842896584000
4	31848166752	9.857	56839688000
4	31851711505	9.858	48290288000
4	31855250824	9.859	2676321712000
4	31858807033	9.86	3618581896000
4	31862355855	9.861	2617887400000
4	31865911122	9.862	1827156480000
4	31869470553	9.863	53682880000
4	31873019260	9.864	64556136000
4	31876568092	9.865	61892832000
4	31880130083	9.866	476981944000
4	31883668210	9.867	3396042400000
4	31887224737	9.868	3684336400000
4	31890794444	9.869	295065256000
4	31894320690	9.87	47054680000
4	31897862326	9.871	2831558768000
4	31901383415	9.872	53269744000
4	31904922453	9.873	3486007928000
4	31908453784	9.874	1615058696000
4	31911987851	9.875	828956616000
4	31915555622	9.876	1854160056000
4	31919117085	9.877	115716288000
4	31922699458	9.878	2432711304000
4	31926305758	9.879	3448375944000
4	31929933216	9.88	1825860096000
4	31933545708	9.881	30764144000
4	31937159937	9.882	39203464000
4	31940746439	9.883	2632926952000
4	31944327753	9.884	4648998032000
4	31947951899	9.885	819335224000
4	31951603664	9.886	2494829456000
4	31955235741	9.887	1809543904000
4	31958873905	9.888	49241328000
4	31962533689	9.889	3602794880000
4	31966184680	9.89	2619997280000
4	31969841588	9.891	3605161776000
4	31973491321	9.892	64386504000
4	31977162009	9.893	3661293104000
4	31980818136	9.894	1890516152000
4	31984484469	9.895	825377296000
4	31988132464	9.896	106285912000
4	31991767698	9.897	53834912000
4	31995405178	9.898	1056994312000
4	31999035187	9.899	1844622696000
4	32002645179	9.9	2619949992000
4	32006278727	9.901	30030048000
4	32009861787	9.902	52753360000
4	32013442958	9.903	116606880000
4	32017015883	9.904	110090368000
4	32020571528	9.905	37395352000
4	32024156087	9.906	5396124144000
4	32027739377	9.907	104346160000
4	32031345796	9.908	40202944000
4	32034968195	9.909	3599338904000
4	32038563984	9.91	86156928000
4	32042152560	9.911	58769448000
4	32045736800	9.912	61944584000
4	32049323241	9.913	1846937712000
4	32052920752	9.914	833443160000
4	32056466335	9.915	3618861304000
4	32060009649	9.916	153835880000
4	32063588364	9.917	52710864000
4	32067196139	9.918	5671778048000
4	32070786581	9.919	2057533824000
4	32074383903	9.92	849967816000
4	32077988552	9.921	255867288000
4	32081608773	9.922	38117480000
4	32085229970	9.923	55227032000
4	32088829534	9.924	828207272000
4	32092415942	9.925	1815960728000
4	32095989264	9.926	1821797640000
4	32099558829	9.927	78891184000
4	32103124737	9.928	1849642360000
4	32106717051	9.929	1818493736000
4	32110294383	9.93	285605696000
4	32113836004	9.931	42886504000
4	32117410405	9.932	2632611240000
4	32120966763	9.933	1816883808000
4	32124520882	9.934	3640166592000
4	32128062586	9.935	269858408000
4	32131610735	9.936	1089724096000
4	32135160740	9.937	2632879040000
4	32138701501	9.938	863910248000
4	32142249066	9.939	1822953048000
4	32145796789	9.94	2037377232000
4	32149347121	9.941	25356224000
4	32152870826	9.942	19651872000
4	32156412164	9.943	3618996800000
4	32159939316	9.944	42533960000
4	32163446652	9.945	4433740096000
4	32166941494	9.946	253650096000
4	32170443700	9.947	5045447840000
4	32173953808	9.948	36779928000
4	32177457406	9.949	827323664000
4	32180948963	9.95	2627452632000
4	32184449841	9.951	38033104000
4	32187951110	9.952	48998672000
4	32191479745	9.953	1827245768000
4	32195031165	9.954	37317624000
4	32198573144	9.955	3622480992000
4	32202114433	9.956	4409665384000
4	32205647772	9.957	271130512000
4	32209182944	9.958	37242392000
4	32212732008	9.959	44820008000
4	32216312562	9.96	832464136000
4	32219888614	9.961	1810847480000
4	32223467966	9.962	62782056000
4	32227041306	9.963	43402688000
4	32230625163	9.964	3616656056000
4	32234226853	9.965	7249274008000
4	32237795151	9.966	823817440000
4	32241372058	9.967	37250496000
4	32244986548	9.968	3616597528000
4	32248639043	9.969	836844376000
4	32252301833	9.97	1877545304000
4	32255977972	9.971	39882280000
4	32259654924	9.972	116989152000
4	32263343300	9.973	1833001512000
4	32267023944	9.974	3607654456000
4	32270700635	9.975	1836519208000
4	32274370068	9.976	3617102176000
4	32278021755	9.977	42033024000
4	32281664117	9.978	2459216640000
4	32285331031	9.979	2055405040000
4	32289010959	9.98	3604524400000
4	32292695157	9.981	4415685720000
4	32296367822	9.982	3419922736000
4	32300046678	9.983	41391912000
4	32303736589	9.984	266655432000
4	32307409728	9.985	2046012336000
4	32311125721	9.986	254355520000
4	32314866619	9.987	1825424920000
4	32318607555	9.988	2629541672000
4	32322333743	9.989	49154768000
4	32326072266	9.99	3611988880000
4	32329809607	9.991	2611691424000
4	32333567833	9.992	1830766112000
4	32337329226	9.993	3627206232000
4	32341065141	9.994	1835587032000
4	32344828236	9.995	3608837696000
4	32348588279	9.996	2638541440000
4	32352325093	9.997	852625600000
4	32356050286	9.998	1056087000000
4	32359758197	9.999	1938933712000
4	32363500769	10	1622364576000

