version 2
run General-4-20230921-09:03:32-16768
attr configname General
attr datetime 20230921-09:03:32
attr experiment General
attr inifile omnetpp.ini
attr iterationvars "$endSim=3.12s, $hosts=15000, $SizeDist=i-hadoop, $p=0.5, $scale=1, $alg=diversity, $diversityTh=2, $pAlg=0.5, $countTh=8, $ThInAgg=2.5e9, $packetIndexAgg=4, $packetIndexCosw=4, $NumOfToRs=10, $cacheToR=300, $cacheAgg=10*300*0.5, $thInCons=2.5e9, $rate=1600000000000, $S=xxx/diversity p = 0.5 th in Agg = 2.5e9 countTh = 8 App A=(Hadoop 2.5e9 t 4) App B (avg(Hadoop) 2.5e9 d 4)/end time = 3.12s CToR = 300/"
attr iterationvarsf endSim=3.12s,hosts=15000,SizeDist=i-hadoop,p=0.5,scale=1,alg=diversity,diversityTh=2,pAlg=0.5,countTh=8,ThInAgg=2.5e9,packetIndexAgg=4,packetIndexCosw=4,NumOfToRs=10,cacheToR=300,cacheAgg=10#2a300#2a0.5,thInCons=2.5e9,rate=1600000000000,S=xxx#2fdiversity_p_=_0.5_th_in_Agg_=_2.5e9_countTh_=_8_App_A=(Hadoop_2.5e9_t_4)_App_B_(avg(Hadoop)_2.5e9_d_4)#2fend_time_=_3.12s_CToR_=_300#2f-
attr measurement "$endSim=3.12s, $hosts=15000, $SizeDist=i-hadoop, $p=0.5, $scale=1, $alg=diversity, $diversityTh=2, $pAlg=0.5, $countTh=8, $ThInAgg=2.5e9, $packetIndexAgg=4, $packetIndexCosw=4, $NumOfToRs=10, $cacheToR=300, $cacheAgg=10*300*0.5, $thInCons=2.5e9, $rate=1600000000000, $S=xxx/diversity p = 0.5 th in Agg = 2.5e9 countTh = 8 App A=(Hadoop 2.5e9 t 4) App B (avg(Hadoop) 2.5e9 d 4)/end time = 3.12s CToR = 300/"
attr network Network
attr processid 16768
attr repetition 0
attr replication #0
attr resultdir results
attr runnumber 4
attr seedset 4
itervar NumOfToRs 10
itervar S "xxx/diversity p = 0.5 th in Agg = 2.5e9 countTh = 8 App A=(Hadoop 2.5e9 t 4) App B (avg(Hadoop) 2.5e9 d 4)/end time = 3.12s CToR = 300/"
itervar SizeDist i-hadoop
itervar ThInAgg 2.5e9
itervar alg diversity
itervar cacheAgg 10*300*0.5
itervar cacheToR 300
itervar countTh 8
itervar diversityTh 2
itervar endSim 3.12s
itervar hosts 15000
itervar p 0.5
itervar pAlg 0.5
itervar packetIndexAgg 4
itervar packetIndexCosw 4
itervar rate 1600000000000
itervar scale 1
itervar thInCons 2.5e9
param Network.estimate_rate_interval 0.5e-3
param Network.policy_size "\"10e6\""
param Network.rack[*].number_of_hosts 15000
param Network.size_distribution "\"size_distribution/i-hadoop.csv\""
param Network.prob_of_app_A 0.5
param Network.scale 1
param Network.algorithm "\"diversity\""
param Network.diversity_th 2
param Network.p_in_algorithm 0.5
param Network.count_th 8
param Network.push_threshold_in_aggregation 2.5e9
param Network.packet_index_for_decision_Agg 4
param Network.packet_index_for_decision_cosw 4
param Network.cache_size "\"2222\""
param Network.NumOfToRs 10
param Network.NumOfAggregation 1
param Network.tor[*].max_cache_size 300
param Network.agg[*].max_cache_size 10*300*0.5
param Network.push_threshold_in_controller_switch 2.5e9
param Network.total_rate_in_tor "\"1600000000000\""
param Network.output_file "\"xxx/diversity p = 0.5 th in Agg = 2.5e9 countTh = 8 App A=(Hadoop 2.5e9 t 4) App B (avg(Hadoop) 2.5e9 d 4)/end time = 3.12s CToR = 300/\""
param Network.run_elephant true
param Network.bandwidth_elephant_threshold "\"2.5e9\""
param Network.run_push true
param Network.record_traffic false
param Network.create_offline_traffic false
param Network.linedelay 0.2
param Network.tor[*].threshold 2
param Network.agg[*].threshold 2
param Network.tor[*].Type 1001
param Network.agg[*].Type 1002
param Network.rack[*].host[*].flow_appearance "\"\""
param Network.rack[*].host[*].flow_size "\"\""
param Network.propagation_time "\"\""
param Network.processing_time_on_data_packet_in_sw "\"\""
param Network.processing_time_on_data_packet_in_controller "\"\""
param Network.insertion_delay "\"\""
param Network.eviction_delay "\"\""
param Network.elephant_table_size "\"\""
param Network.flush_elephant_time "\"\""
param Network.check_for_elephant_time "\"\""
param Network.elephant_sample_rx "\"\""
param Network.already_requested_threshold "\"\""
param Network.cache_percentage "\"\""
param Network.eviction_sample_size "\"\""
param Network.inter_arrival_time_between_packets "\"\""
param Network.inter_arrival_time_between_flowlets "\"\""
param Network.inter_arrival_time_between_flows "\"\""
param Network.large_flow "\"\""
param Network.last_flow_appearance "\"0\""
param Network.rack[*].last_flow_appearance 0

scalar Network.controller "prob_of_app_A: " 0.5
scalar Network.tor[0] "max_cache_size: " 300
scalar Network.tor[0] "push threshold: " 0
scalar Network.tor[1] "max_cache_size: " 300
scalar Network.tor[1] "push threshold: " 0
scalar Network.tor[2] "max_cache_size: " 300
scalar Network.tor[2] "push threshold: " 0
scalar Network.tor[3] "max_cache_size: " 300
scalar Network.tor[3] "push threshold: " 0
scalar Network.tor[4] "max_cache_size: " 300
scalar Network.tor[4] "push threshold: " 0
scalar Network.tor[5] "max_cache_size: " 300
scalar Network.tor[5] "push threshold: " 0
scalar Network.tor[6] "max_cache_size: " 300
scalar Network.tor[6] "push threshold: " 0
scalar Network.tor[7] "max_cache_size: " 300
scalar Network.tor[7] "push threshold: " 0
scalar Network.tor[8] "max_cache_size: " 300
scalar Network.tor[8] "push threshold: " 0
scalar Network.tor[9] "max_cache_size: " 300
scalar Network.tor[9] "push threshold: " 0
scalar Network.agg[0] "max_cache_size: " 1500
scalar Network.agg[0] "push threshold: " 2500000000
scalar Network.dest "run_elephant: " 1
scalar Network.dest "run_push: " 1
scalar Network.dest "cache_size: " 2222
scalar Network.dest "scale: " 1
scalar Network.dest "total_rate_in_tor: " 1600000000000
scalar Network.controller "INTERVAL: " 0.0001
scalar Network.controller "insertion_rate: " 32788408.333333
statistic Network.controller Total_bandwidth_hist
field count 1200
field mean 467.8047
field stddev 65.409806840685
field min 406.8
field max 2426.76
field sum 561365.64
field sqrsum 267739337.7648
bin	-inf	0
bin	0	0
bin	50	0
bin	100	0
bin	150	0
bin	200	0
bin	250	0
bin	300	0
bin	350	0
bin	400	186
bin	450	999
bin	500	11
bin	550	1
bin	600	0
bin	650	0
bin	700	1
bin	750	0
bin	800	0
bin	850	0
bin	900	0
bin	950	0
bin	1000	0
bin	1050	0
bin	1100	0
bin	1150	0
bin	1200	0
bin	1250	0
bin	1300	0
bin	1350	0
bin	1400	1
bin	1450	0
bin	1500	0
bin	1550	0
bin	1600	0
bin	1650	0
bin	1700	0
bin	1750	0
bin	1800	0
bin	1850	0
bin	1900	0
bin	1950	0
bin	2000	0
bin	2050	0
bin	2100	0
bin	2150	0
bin	2200	0
bin	2250	0
bin	2300	0
bin	2350	0
bin	2400	1
bin	2450	0
bin	2500	0
bin	2550	0
bin	2600	0
bin	2650	0
bin	2700	0
bin	2750	0
bin	2800	0
bin	2850	0
bin	2900	0
bin	2950	0
statistic Network.rack[0].hub "bandwidth hist"
field count 1200
field mean 327504900000
field stddev 24558645522.131
field min 265680000000
field max 396480000000
field sum 3.9300588e+014
field sqrsum 1.294345007856e+026
bin	-inf	0
bin	265000000000	1
bin	267000000000	2
bin	269000000000	2
bin	271000000000	1
bin	273000000000	0
bin	275000000000	1
bin	277000000000	3
bin	279000000000	8
bin	281000000000	2
bin	283000000000	8
bin	285000000000	9
bin	287000000000	13
bin	289000000000	13
bin	291000000000	17
bin	293000000000	29
bin	295000000000	24
bin	297000000000	23
bin	299000000000	34
bin	301000000000	28
bin	303000000000	36
bin	305000000000	29
bin	307000000000	19
bin	309000000000	28
bin	311000000000	38
bin	313000000000	40
bin	315000000000	37
bin	317000000000	33
bin	319000000000	27
bin	321000000000	39
bin	323000000000	30
bin	325000000000	34
bin	327000000000	24
bin	329000000000	45
bin	331000000000	34
bin	333000000000	38
bin	335000000000	32
bin	337000000000	29
bin	339000000000	38
bin	341000000000	35
bin	343000000000	20
bin	345000000000	27
bin	347000000000	19
bin	349000000000	26
bin	351000000000	20
bin	353000000000	23
bin	355000000000	14
bin	357000000000	10
bin	359000000000	22
bin	361000000000	13
bin	363000000000	24
bin	365000000000	15
bin	367000000000	16
bin	369000000000	18
bin	371000000000	12
bin	373000000000	6
bin	375000000000	6
bin	377000000000	11
bin	379000000000	8
bin	381000000000	2
bin	383000000000	1
bin	385000000000	1
bin	387000000000	1
bin	389000000000	0
bin	391000000000	0
bin	393000000000	1
bin	395000000000	1
bin	397000000000	0
statistic Network.rack[1].hub "bandwidth hist"
field count 1200
field mean 335658100000
field stddev 25108679453.064
field min 287040000000
field max 424200000000
field sum 4.0278972e+014
field sqrsum 1.359555366096e+026
bin	-inf	0
bin	285000000000	0
bin	287000000000	2
bin	289000000000	0
bin	291000000000	2
bin	293000000000	4
bin	295000000000	6
bin	297000000000	9
bin	299000000000	19
bin	301000000000	15
bin	303000000000	26
bin	305000000000	26
bin	307000000000	30
bin	309000000000	30
bin	311000000000	35
bin	313000000000	31
bin	315000000000	50
bin	317000000000	44
bin	319000000000	37
bin	321000000000	46
bin	323000000000	46
bin	325000000000	43
bin	327000000000	50
bin	329000000000	35
bin	331000000000	59
bin	333000000000	42
bin	335000000000	37
bin	337000000000	30
bin	339000000000	36
bin	341000000000	39
bin	343000000000	40
bin	345000000000	24
bin	347000000000	19
bin	349000000000	20
bin	351000000000	19
bin	353000000000	17
bin	355000000000	22
bin	357000000000	17
bin	359000000000	11
bin	361000000000	15
bin	363000000000	17
bin	365000000000	12
bin	367000000000	15
bin	369000000000	8
bin	371000000000	14
bin	373000000000	5
bin	375000000000	11
bin	377000000000	8
bin	379000000000	6
bin	381000000000	4
bin	383000000000	8
bin	385000000000	2
bin	387000000000	1
bin	389000000000	9
bin	391000000000	3
bin	393000000000	5
bin	395000000000	2
bin	397000000000	1
bin	399000000000	5
bin	401000000000	2
bin	403000000000	1
bin	405000000000	4
bin	407000000000	1
bin	409000000000	4
bin	411000000000	3
bin	413000000000	3
bin	415000000000	6
bin	417000000000	2
bin	419000000000	1
bin	421000000000	2
bin	423000000000	2
bin	425000000000	0
statistic Network.rack[2].hub "bandwidth hist"
field count 1200
field mean 321808700000
field stddev 16794558641.91
field min 282840000000
field max 377760000000
field sum 3.8617044e+014
field sqrsum 1.246111938576e+026
bin	-inf	0
bin	266000000000	0
bin	268000000000	0
bin	270000000000	0
bin	272000000000	0
bin	274000000000	0
bin	276000000000	0
bin	278000000000	0
bin	280000000000	0
bin	282000000000	5
bin	284000000000	2
bin	286000000000	7
bin	288000000000	6
bin	290000000000	7
bin	292000000000	10
bin	294000000000	21
bin	296000000000	20
bin	298000000000	24
bin	300000000000	30
bin	302000000000	30
bin	304000000000	39
bin	306000000000	39
bin	308000000000	57
bin	310000000000	49
bin	312000000000	70
bin	314000000000	63
bin	316000000000	56
bin	318000000000	57
bin	320000000000	63
bin	322000000000	55
bin	324000000000	59
bin	326000000000	53
bin	328000000000	37
bin	330000000000	37
bin	332000000000	33
bin	334000000000	32
bin	336000000000	24
bin	338000000000	33
bin	340000000000	20
bin	342000000000	18
bin	344000000000	20
bin	346000000000	26
bin	348000000000	19
bin	350000000000	13
bin	352000000000	8
bin	354000000000	18
bin	356000000000	10
bin	358000000000	9
bin	360000000000	9
bin	362000000000	4
bin	364000000000	4
bin	366000000000	3
bin	368000000000	0
bin	370000000000	0
bin	372000000000	0
bin	374000000000	0
bin	376000000000	1
bin	378000000000	0
statistic Network.rack[3].hub "bandwidth hist"
field count 1200
field mean 337285300000
field stddev 27140499753.124
field min 285840000000
field max 437640000000
field sum 4.0474236e+014
field sqrsum 1.373968397808e+026
bin	-inf	0
bin	284000000000	1
bin	286000000000	0
bin	288000000000	3
bin	290000000000	0
bin	292000000000	0
bin	294000000000	4
bin	296000000000	3
bin	298000000000	6
bin	300000000000	10
bin	302000000000	16
bin	304000000000	13
bin	306000000000	29
bin	308000000000	35
bin	310000000000	35
bin	312000000000	31
bin	314000000000	37
bin	316000000000	35
bin	318000000000	49
bin	320000000000	41
bin	322000000000	45
bin	324000000000	47
bin	326000000000	53
bin	328000000000	51
bin	330000000000	48
bin	332000000000	53
bin	334000000000	50
bin	336000000000	51
bin	338000000000	48
bin	340000000000	45
bin	342000000000	36
bin	344000000000	26
bin	346000000000	34
bin	348000000000	28
bin	350000000000	24
bin	352000000000	13
bin	354000000000	14
bin	356000000000	12
bin	358000000000	13
bin	360000000000	12
bin	362000000000	10
bin	364000000000	9
bin	366000000000	3
bin	368000000000	9
bin	370000000000	7
bin	372000000000	5
bin	374000000000	7
bin	376000000000	5
bin	378000000000	2
bin	380000000000	3
bin	382000000000	2
bin	384000000000	1
bin	386000000000	2
bin	388000000000	2
bin	390000000000	3
bin	392000000000	0
bin	394000000000	6
bin	396000000000	2
bin	398000000000	1
bin	400000000000	4
bin	402000000000	2
bin	404000000000	3
bin	406000000000	3
bin	408000000000	4
bin	410000000000	9
bin	412000000000	4
bin	414000000000	2
bin	416000000000	5
bin	418000000000	5
bin	420000000000	7
bin	422000000000	5
bin	424000000000	3
bin	426000000000	1
bin	428000000000	4
bin	430000000000	3
bin	432000000000	3
bin	434000000000	0
bin	436000000000	3
bin	438000000000	0
statistic Network.rack[4].hub "bandwidth hist"
field count 1200
field mean 326629900000
field stddev 23240038744.029
field min 275160000000
field max 390240000000
field sum 3.9195588e+014
field sqrsum 1.286720890704e+026
bin	-inf	0
bin	266000000000	0
bin	268000000000	0
bin	270000000000	0
bin	272000000000	0
bin	274000000000	2
bin	276000000000	0
bin	278000000000	2
bin	280000000000	0
bin	282000000000	3
bin	284000000000	8
bin	286000000000	8
bin	288000000000	15
bin	290000000000	12
bin	292000000000	15
bin	294000000000	17
bin	296000000000	31
bin	298000000000	20
bin	300000000000	27
bin	302000000000	39
bin	304000000000	29
bin	306000000000	32
bin	308000000000	41
bin	310000000000	51
bin	312000000000	38
bin	314000000000	52
bin	316000000000	40
bin	318000000000	51
bin	320000000000	46
bin	322000000000	39
bin	324000000000	39
bin	326000000000	38
bin	328000000000	43
bin	330000000000	38
bin	332000000000	30
bin	334000000000	27
bin	336000000000	26
bin	338000000000	33
bin	340000000000	22
bin	342000000000	24
bin	344000000000	23
bin	346000000000	14
bin	348000000000	12
bin	350000000000	16
bin	352000000000	18
bin	354000000000	19
bin	356000000000	14
bin	358000000000	13
bin	360000000000	12
bin	362000000000	15
bin	364000000000	9
bin	366000000000	12
bin	368000000000	13
bin	370000000000	16
bin	372000000000	12
bin	374000000000	11
bin	376000000000	9
bin	378000000000	7
bin	380000000000	2
bin	382000000000	5
bin	384000000000	5
bin	386000000000	2
bin	388000000000	2
bin	390000000000	1
bin	392000000000	0
statistic Network.rack[5].hub "bandwidth hist"
field count 1200
field mean 352226000000
field stddev 18670835441.407
field min 312360000000
field max 417840000000
field sum 4.226712e+014
field sqrsum 1.492937576064e+026
bin	-inf	0
bin	301000000000	0
bin	303000000000	0
bin	305000000000	0
bin	307000000000	0
bin	309000000000	0
bin	311000000000	1
bin	313000000000	2
bin	315000000000	5
bin	317000000000	7
bin	319000000000	13
bin	321000000000	12
bin	323000000000	21
bin	325000000000	16
bin	327000000000	33
bin	329000000000	32
bin	331000000000	37
bin	333000000000	37
bin	335000000000	52
bin	337000000000	55
bin	339000000000	48
bin	341000000000	43
bin	343000000000	50
bin	345000000000	54
bin	347000000000	43
bin	349000000000	48
bin	351000000000	53
bin	353000000000	50
bin	355000000000	46
bin	357000000000	41
bin	359000000000	51
bin	361000000000	40
bin	363000000000	33
bin	365000000000	33
bin	367000000000	26
bin	369000000000	29
bin	371000000000	18
bin	373000000000	20
bin	375000000000	28
bin	377000000000	9
bin	379000000000	14
bin	381000000000	19
bin	383000000000	9
bin	385000000000	11
bin	387000000000	12
bin	389000000000	7
bin	391000000000	9
bin	393000000000	10
bin	395000000000	3
bin	397000000000	4
bin	399000000000	3
bin	401000000000	3
bin	403000000000	1
bin	405000000000	4
bin	407000000000	1
bin	409000000000	1
bin	411000000000	0
bin	413000000000	2
bin	415000000000	0
bin	417000000000	1
bin	419000000000	0
statistic Network.rack[6].hub "bandwidth hist"
field count 1200
field mean 301342300000
field stddev 19388930404.447
field min 261600000000
field max 373200000000
field sum 3.6161076e+014
field sqrsum 1.094193589392e+026
bin	-inf	0
bin	244000000000	0
bin	246000000000	0
bin	248000000000	0
bin	250000000000	0
bin	252000000000	0
bin	254000000000	0
bin	256000000000	0
bin	258000000000	0
bin	260000000000	3
bin	262000000000	4
bin	264000000000	3
bin	266000000000	7
bin	268000000000	16
bin	270000000000	19
bin	272000000000	18
bin	274000000000	27
bin	276000000000	31
bin	278000000000	31
bin	280000000000	31
bin	282000000000	41
bin	284000000000	40
bin	286000000000	44
bin	288000000000	47
bin	290000000000	48
bin	292000000000	55
bin	294000000000	59
bin	296000000000	54
bin	298000000000	45
bin	300000000000	36
bin	302000000000	36
bin	304000000000	50
bin	306000000000	34
bin	308000000000	50
bin	310000000000	28
bin	312000000000	50
bin	314000000000	36
bin	316000000000	34
bin	318000000000	28
bin	320000000000	26
bin	322000000000	27
bin	324000000000	20
bin	326000000000	16
bin	328000000000	13
bin	330000000000	18
bin	332000000000	7
bin	334000000000	8
bin	336000000000	8
bin	338000000000	10
bin	340000000000	3
bin	342000000000	5
bin	344000000000	6
bin	346000000000	4
bin	348000000000	4
bin	350000000000	1
bin	352000000000	6
bin	354000000000	1
bin	356000000000	1
bin	358000000000	1
bin	360000000000	5
bin	362000000000	0
bin	364000000000	0
bin	366000000000	0
bin	368000000000	1
bin	370000000000	2
bin	372000000000	2
bin	374000000000	0
statistic Network.rack[7].hub "bandwidth hist"
field count 1200
field mean 310722800000
field stddev 12893866732.917
field min 273120000000
field max 351000000000
field sum 3.7286736e+014
field sqrsum 1.160577260352e+026
bin	-inf	0
bin	264000000000	0
bin	265000000000	0
bin	266000000000	0
bin	267000000000	0
bin	268000000000	0
bin	269000000000	0
bin	270000000000	0
bin	271000000000	0
bin	272000000000	0
bin	273000000000	1
bin	274000000000	0
bin	275000000000	0
bin	276000000000	1
bin	277000000000	1
bin	278000000000	2
bin	279000000000	1
bin	280000000000	1
bin	281000000000	2
bin	282000000000	5
bin	283000000000	8
bin	284000000000	5
bin	285000000000	4
bin	286000000000	8
bin	287000000000	4
bin	288000000000	5
bin	289000000000	7
bin	290000000000	8
bin	291000000000	19
bin	292000000000	13
bin	293000000000	25
bin	294000000000	21
bin	295000000000	25
bin	296000000000	19
bin	297000000000	29
bin	298000000000	18
bin	299000000000	34
bin	300000000000	34
bin	301000000000	23
bin	302000000000	26
bin	303000000000	33
bin	304000000000	31
bin	305000000000	23
bin	306000000000	36
bin	307000000000	20
bin	308000000000	37
bin	309000000000	35
bin	310000000000	42
bin	311000000000	33
bin	312000000000	35
bin	313000000000	38
bin	314000000000	30
bin	315000000000	30
bin	316000000000	34
bin	317000000000	28
bin	318000000000	38
bin	319000000000	29
bin	320000000000	32
bin	321000000000	29
bin	322000000000	31
bin	323000000000	28
bin	324000000000	20
bin	325000000000	19
bin	326000000000	15
bin	327000000000	22
bin	328000000000	13
bin	329000000000	13
bin	330000000000	17
bin	331000000000	5
bin	332000000000	2
bin	333000000000	11
bin	334000000000	5
bin	335000000000	5
bin	336000000000	11
bin	337000000000	1
bin	338000000000	3
bin	339000000000	2
bin	340000000000	1
bin	341000000000	2
bin	342000000000	4
bin	343000000000	2
bin	344000000000	2
bin	345000000000	0
bin	346000000000	0
bin	347000000000	2
bin	348000000000	0
bin	349000000000	1
bin	350000000000	0
bin	351000000000	1
bin	352000000000	0
bin	353000000000	0
statistic Network.rack[8].hub "bandwidth hist"
field count 1200
field mean 320621300000
field stddev 17273904213.648
field min 270240000000
field max 375360000000
field sum 3.8474556e+014
field sqrsum 1.237153885488e+026
bin	-inf	0
bin	270000000000	1
bin	272000000000	0
bin	274000000000	0
bin	276000000000	0
bin	278000000000	1
bin	280000000000	2
bin	282000000000	5
bin	284000000000	5
bin	286000000000	3
bin	288000000000	7
bin	290000000000	10
bin	292000000000	10
bin	294000000000	21
bin	296000000000	23
bin	298000000000	24
bin	300000000000	38
bin	302000000000	39
bin	304000000000	42
bin	306000000000	64
bin	308000000000	51
bin	310000000000	52
bin	312000000000	53
bin	314000000000	53
bin	316000000000	74
bin	318000000000	69
bin	320000000000	53
bin	322000000000	54
bin	324000000000	49
bin	326000000000	41
bin	328000000000	37
bin	330000000000	38
bin	332000000000	33
bin	334000000000	28
bin	336000000000	27
bin	338000000000	22
bin	340000000000	16
bin	342000000000	21
bin	344000000000	28
bin	346000000000	10
bin	348000000000	18
bin	350000000000	16
bin	352000000000	5
bin	354000000000	13
bin	356000000000	11
bin	358000000000	3
bin	360000000000	8
bin	362000000000	4
bin	364000000000	5
bin	366000000000	4
bin	368000000000	4
bin	370000000000	3
bin	372000000000	1
bin	374000000000	1
bin	376000000000	0
bin	378000000000	0
bin	380000000000	0
bin	382000000000	0
bin	384000000000	0
bin	386000000000	0
bin	388000000000	0
bin	390000000000	0
bin	392000000000	0
statistic Network.rack[9].hub "bandwidth hist"
field count 1200
field mean 324990200000
field stddev 21494703592.481
field min 273240000000
field max 388560000000
field sum 3.8998824e+014
field sqrsum 1.27296320832e+026
bin	-inf	0
bin	256000000000	0
bin	258000000000	0
bin	260000000000	0
bin	262000000000	0
bin	264000000000	0
bin	266000000000	0
bin	268000000000	0
bin	270000000000	0
bin	272000000000	1
bin	274000000000	2
bin	276000000000	5
bin	278000000000	2
bin	280000000000	4
bin	282000000000	8
bin	284000000000	11
bin	286000000000	7
bin	288000000000	5
bin	290000000000	16
bin	292000000000	21
bin	294000000000	15
bin	296000000000	26
bin	298000000000	21
bin	300000000000	21
bin	302000000000	29
bin	304000000000	36
bin	306000000000	30
bin	308000000000	40
bin	310000000000	28
bin	312000000000	42
bin	314000000000	49
bin	316000000000	40
bin	318000000000	43
bin	320000000000	62
bin	322000000000	53
bin	324000000000	43
bin	326000000000	60
bin	328000000000	41
bin	330000000000	39
bin	332000000000	25
bin	334000000000	37
bin	336000000000	44
bin	338000000000	23
bin	340000000000	23
bin	342000000000	35
bin	344000000000	19
bin	346000000000	20
bin	348000000000	16
bin	350000000000	16
bin	352000000000	12
bin	354000000000	14
bin	356000000000	11
bin	358000000000	9
bin	360000000000	10
bin	362000000000	15
bin	364000000000	8
bin	366000000000	12
bin	368000000000	17
bin	370000000000	9
bin	372000000000	5
bin	374000000000	6
bin	376000000000	3
bin	378000000000	8
bin	380000000000	0
bin	382000000000	2
bin	384000000000	0
bin	386000000000	0
bin	388000000000	1
bin	390000000000	0
scalar Network.tor[0] "Bandwidth: " 0
statistic Network.tor[0] "flow count"
field count 1200
field mean 655.6
field stddev 24.750835067335
field min 587
field max 716
field sum 786720
field sqrsum 516508144
bin	-inf	0
bin	586	1
bin	588	0
bin	590	0
bin	592	0
bin	594	1
bin	596	2
bin	598	3
bin	600	2
bin	602	5
bin	604	2
bin	606	10
bin	608	10
bin	610	9
bin	612	17
bin	614	12
bin	616	16
bin	618	21
bin	620	24
bin	622	24
bin	624	18
bin	626	18
bin	628	18
bin	630	17
bin	632	24
bin	634	26
bin	636	28
bin	638	27
bin	640	23
bin	642	28
bin	644	33
bin	646	32
bin	648	29
bin	650	26
bin	652	33
bin	654	32
bin	656	31
bin	658	22
bin	660	38
bin	662	31
bin	664	31
bin	666	34
bin	668	38
bin	670	37
bin	672	28
bin	674	45
bin	676	35
bin	678	37
bin	680	23
bin	682	28
bin	684	38
bin	686	23
bin	688	27
bin	690	13
bin	692	15
bin	694	18
bin	696	11
bin	698	7
bin	700	6
bin	702	6
bin	704	1
bin	706	3
bin	708	1
bin	710	0
bin	712	1
bin	714	0
bin	716	1
bin	718	0
bin	720	0
bin	722	0
bin	724	0
bin	726	0
bin	728	0
bin	730	0
bin	732	0
bin	734	0
bin	736	0
bin	738	0
bin	740	0
statistic Network.tor[0] cache_occupancy
field count 1200
field mean 300
field stddev 0
field min 300
field max 300
field sum 360000
field sqrsum 108000000
bin	-inf	0
bin	299	0
bin	300	1200
bin	301	0
statistic Network.tor[0] activity_time_of_a_rule_A
field count 94134
field mean 0.00016799469713086
field stddev 0.00065572440534457
field min 0
field max 0.032107880316
field sum 15.814012819716
field sqrsum 0.04313145950387
bin	-inf	0
bin	-0.5	0
bin	-0.48	0
bin	-0.46	0
bin	-0.44	0
bin	-0.42	0
bin	-0.4	0
bin	-0.38	0
bin	-0.36	0
bin	-0.34	0
bin	-0.32	0
bin	-0.3	0
bin	-0.28	0
bin	-0.26	0
bin	-0.24	0
bin	-0.22	0
bin	-0.2	0
bin	-0.18	0
bin	-0.16	0
bin	-0.14	0
bin	-0.12	0
bin	-0.1	0
bin	-0.08	0
bin	-0.06	0
bin	-0.04	0
bin	-0.02	0
bin	0	94131
bin	0.02	3
bin	0.04	0
bin	0.06	0
bin	0.08	0
bin	0.1	0
bin	0.12	0
bin	0.14	0
bin	0.16	0
bin	0.18	0
bin	0.2	0
bin	0.22	0
bin	0.24	0
bin	0.26	0
bin	0.28	0
bin	0.3	0
bin	0.32	0
bin	0.34	0
bin	0.36	0
bin	0.38	0
bin	0.4	0
bin	0.42	0
bin	0.44	0
bin	0.46	0
bin	0.48	0
bin	0.5	0
statistic Network.tor[0] activity_time_of_a_rule_B
field count 284592
field mean 3.354890132588e-005
field stddev 0.00013857055406921
field min 0
field max 0.00501195165
field sum 9.5477489261349
field sqrsum 0.005784975510728
bin	-inf	0
bin	-0.5	0
bin	-0.48	0
bin	-0.46	0
bin	-0.44	0
bin	-0.42	0
bin	-0.4	0
bin	-0.38	0
bin	-0.36	0
bin	-0.34	0
bin	-0.32	0
bin	-0.3	0
bin	-0.28	0
bin	-0.26	0
bin	-0.24	0
bin	-0.22	0
bin	-0.2	0
bin	-0.18	0
bin	-0.16	0
bin	-0.14	0
bin	-0.12	0
bin	-0.1	0
bin	-0.08	0
bin	-0.06	0
bin	-0.04	0
bin	-0.02	0
bin	0	284592
bin	0.02	0
bin	0.04	0
bin	0.06	0
bin	0.08	0
bin	0.1	0
bin	0.12	0
bin	0.14	0
bin	0.16	0
bin	0.18	0
bin	0.2	0
bin	0.22	0
bin	0.24	0
bin	0.26	0
bin	0.28	0
bin	0.3	0
bin	0.32	0
bin	0.34	0
bin	0.36	0
bin	0.38	0
bin	0.4	0
bin	0.42	0
bin	0.44	0
bin	0.46	0
bin	0.48	0
bin	0.5	0
statistic Network.tor[0] bandwidth_histogram
field count 1200
field mean 327.503
field stddev 24.561525416297
field min 265.56
field max 396.12
field sum 393003.6
field sqrsum 129433176.9792
bin	-inf	0
bin	265	1
bin	267	2
bin	269	3
bin	271	0
bin	273	1
bin	275	1
bin	277	2
bin	279	6
bin	281	3
bin	283	8
bin	285	11
bin	287	12
bin	289	11
bin	291	20
bin	293	30
bin	295	27
bin	297	20
bin	299	31
bin	301	29
bin	303	32
bin	305	32
bin	307	24
bin	309	21
bin	311	35
bin	313	47
bin	315	34
bin	317	32
bin	319	35
bin	321	31
bin	323	36
bin	325	24
bin	327	38
bin	329	35
bin	331	42
bin	333	32
bin	335	34
bin	337	34
bin	339	34
bin	341	33
bin	343	22
bin	345	26
bin	347	21
bin	349	23
bin	351	21
bin	353	21
bin	355	12
bin	357	15
bin	359	19
bin	361	22
bin	363	18
bin	365	9
bin	367	19
bin	369	19
bin	371	12
bin	373	5
bin	375	9
bin	377	7
bin	379	10
bin	381	2
bin	383	1
bin	385	0
bin	387	2
bin	389	0
bin	391	0
bin	393	0
bin	395	2
bin	397	0
scalar Network.tor[0] "cache_content_by_app: " 0.58474576271186
scalar Network.tor[1] "Bandwidth: " 0
statistic Network.tor[1] "flow count"
field count 1200
field mean 629.55916666667
field stddev 17.120185452573
field min 580
field max 685
field sum 755471
field sqrsum 475965121
bin	-inf	0
bin	580	1
bin	582	0
bin	584	0
bin	586	0
bin	588	0
bin	590	1
bin	592	11
bin	594	5
bin	596	9
bin	598	16
bin	600	12
bin	602	14
bin	604	16
bin	606	28
bin	608	35
bin	610	34
bin	612	43
bin	614	48
bin	616	35
bin	618	40
bin	620	43
bin	622	59
bin	624	56
bin	626	53
bin	628	58
bin	630	47
bin	632	56
bin	634	51
bin	636	52
bin	638	42
bin	640	41
bin	642	42
bin	644	30
bin	646	33
bin	648	32
bin	650	28
bin	652	29
bin	654	23
bin	656	11
bin	658	12
bin	660	12
bin	662	7
bin	664	9
bin	666	6
bin	668	5
bin	670	2
bin	672	4
bin	674	3
bin	676	3
bin	678	0
bin	680	0
bin	682	1
bin	684	2
bin	686	0
statistic Network.tor[1] cache_occupancy
field count 1200
field mean 300
field stddev 0
field min 300
field max 300
field sum 360000
field sqrsum 108000000
bin	-inf	0
bin	299	0
bin	300	1200
bin	301	0
statistic Network.tor[1] activity_time_of_a_rule_A
field count 89193
field mean 0.00016508335939269
field stddev 0.00077051116920436
field min 0
field max 0.047423027257
field sum 14.724280074312
field sqrsum 0.055382905718297
bin	-inf	0
bin	-0.5	0
bin	-0.48	0
bin	-0.46	0
bin	-0.44	0
bin	-0.42	0
bin	-0.4	0
bin	-0.38	0
bin	-0.36	0
bin	-0.34	0
bin	-0.32	0
bin	-0.3	0
bin	-0.28	0
bin	-0.26	0
bin	-0.24	0
bin	-0.22	0
bin	-0.2	0
bin	-0.18	0
bin	-0.16	0
bin	-0.14	0
bin	-0.12	0
bin	-0.1	0
bin	-0.08	0
bin	-0.06	0
bin	-0.04	0
bin	-0.02	0
bin	0	89189
bin	0.02	3
bin	0.04	1
bin	0.06	0
bin	0.08	0
bin	0.1	0
bin	0.12	0
bin	0.14	0
bin	0.16	0
bin	0.18	0
bin	0.2	0
bin	0.22	0
bin	0.24	0
bin	0.26	0
bin	0.28	0
bin	0.3	0
bin	0.32	0
bin	0.34	0
bin	0.36	0
bin	0.38	0
bin	0.4	0
bin	0.42	0
bin	0.44	0
bin	0.46	0
bin	0.48	0
bin	0.5	0
statistic Network.tor[1] activity_time_of_a_rule_B
field count 281558
field mean 3.7560532222938e-005
field stddev 0.00015573764360244
field min 0
field max 0.00536357618
field sum 10.575468331626
field sqrsum 0.0072261638474277
bin	-inf	0
bin	0	257243
bin	9.6e-005	6554
bin	0.000192	4697
bin	0.000288	3458
bin	0.000384	2538
bin	0.00048	1842
bin	0.000576	1360
bin	0.000672	1020
bin	0.000768	675
bin	0.000864	551
bin	0.00096	357
bin	0.001056	276
bin	0.001152	238
bin	0.001248	151
bin	0.001344	133
bin	0.00144	83
bin	0.001536	72
bin	0.001632	59
bin	0.001728	42
bin	0.001824	45
bin	0.00192	23
bin	0.002016	20
bin	0.002112	16
bin	0.002208	18
bin	0.002304	19
bin	0.0024	17
bin	0.002496	4
bin	0.002592	9
bin	0.002688	3
bin	0.002784	5
bin	0.00288	3
bin	0.002976	5
bin	0.003072	3
bin	0.003168	3
bin	0.003264	1
bin	0.00336	1
bin	0.003456	3
bin	0.003552	0
bin	0.003648	2
bin	0.003744	0
bin	0.00384	0
bin	0.003936	0
bin	0.004032	1
bin	0.004128	2
bin	0.004224	1
bin	0.00432	0
bin	0.004416	1
bin	0.004512	0
bin	0.004608	1
bin	0.004704	1
bin	0.0048	0
bin	0.004896	0
bin	0.004992	0
bin	0.005088	1
bin	0.005184	0
bin	0.00528	1
bin	0.005376	0
statistic Network.tor[1] bandwidth_histogram
field count 1200
field mean 335.6555
field stddev 25.106558794371
field min 287.4
field max 424.56
field sum 402786.6
field sqrsum 135953314.4304
bin	-inf	0
bin	285	0
bin	287	1
bin	289	3
bin	291	1
bin	293	2
bin	295	8
bin	297	8
bin	299	19
bin	301	17
bin	303	22
bin	305	23
bin	307	35
bin	309	35
bin	311	32
bin	313	32
bin	315	43
bin	317	43
bin	319	47
bin	321	43
bin	323	46
bin	325	45
bin	327	42
bin	329	47
bin	331	51
bin	333	38
bin	335	43
bin	337	28
bin	339	34
bin	341	43
bin	343	34
bin	345	30
bin	347	19
bin	349	22
bin	351	15
bin	353	22
bin	355	18
bin	357	16
bin	359	14
bin	361	13
bin	363	12
bin	365	14
bin	367	14
bin	369	11
bin	371	11
bin	373	12
bin	375	11
bin	377	3
bin	379	6
bin	381	6
bin	383	7
bin	385	2
bin	387	1
bin	389	9
bin	391	3
bin	393	3
bin	395	4
bin	397	3
bin	399	3
bin	401	1
bin	403	3
bin	405	4
bin	407	2
bin	409	2
bin	411	4
bin	413	3
bin	415	2
bin	417	4
bin	419	2
bin	421	2
bin	423	2
bin	425	0
scalar Network.tor[1] "cache_content_by_app: " 0.53586497890295
scalar Network.tor[2] "Bandwidth: " 0
statistic Network.tor[2] "flow count"
field count 1200
field mean 625.92
field stddev 17.299845969222
field min 576
field max 682
field sum 751104
field sqrsum 470489858
bin	-inf	0
bin	562	0
bin	564	0
bin	566	0
bin	568	0
bin	570	0
bin	572	0
bin	574	0
bin	576	1
bin	578	1
bin	580	1
bin	582	1
bin	584	4
bin	586	3
bin	588	4
bin	590	6
bin	592	4
bin	594	10
bin	596	12
bin	598	12
bin	600	19
bin	602	22
bin	604	32
bin	606	34
bin	608	38
bin	610	54
bin	612	46
bin	614	45
bin	616	60
bin	618	48
bin	620	54
bin	622	57
bin	624	55
bin	626	49
bin	628	46
bin	630	48
bin	632	48
bin	634	43
bin	636	29
bin	638	35
bin	640	33
bin	642	37
bin	644	36
bin	646	24
bin	648	29
bin	650	29
bin	652	20
bin	654	11
bin	656	13
bin	658	12
bin	660	8
bin	662	7
bin	664	6
bin	666	4
bin	668	4
bin	670	1
bin	672	2
bin	674	1
bin	676	1
bin	678	0
bin	680	0
bin	682	1
bin	684	0
statistic Network.tor[2] cache_occupancy
field count 1200
field mean 300
field stddev 0
field min 300
field max 300
field sum 360000
field sqrsum 108000000
bin	-inf	0
bin	299	0
bin	300	1200
bin	301	0
statistic Network.tor[2] activity_time_of_a_rule_A
field count 90523
field mean 0.00016884725575612
field stddev 0.00073669060648258
field min 0
field max 0.029490227837
field sum 15.284560132811
field sqrsum 0.051708226716968
bin	-inf	0
bin	0	82543
bin	0.0004224	2426
bin	0.0008448	1557
bin	0.0012672	1107
bin	0.0016896	751
bin	0.002112	576
bin	0.0025344	370
bin	0.0029568	269
bin	0.0033792	197
bin	0.0038016	142
bin	0.004224	110
bin	0.0046464	87
bin	0.0050688	66
bin	0.0054912	69
bin	0.0059136	29
bin	0.006336	28
bin	0.0067584	29
bin	0.0071808	32
bin	0.0076032	27
bin	0.0080256	17
bin	0.008448	11
bin	0.0088704	12
bin	0.0092928	14
bin	0.0097152	4
bin	0.0101376	7
bin	0.01056	5
bin	0.0109824	5
bin	0.0114048	4
bin	0.0118272	2
bin	0.0122496	1
bin	0.012672	5
bin	0.0130944	2
bin	0.0135168	1
bin	0.0139392	1
bin	0.0143616	3
bin	0.014784	2
bin	0.0152064	0
bin	0.0156288	1
bin	0.0160512	1
bin	0.0164736	2
bin	0.016896	0
bin	0.0173184	0
bin	0.0177408	1
bin	0.0181632	0
bin	0.0185856	0
bin	0.019008	1
bin	0.0194304	1
bin	0.0198528	0
bin	0.0202752	1
bin	0.0206976	0
bin	0.02112	1
bin	0.0215424	0
bin	0.0219648	1
bin	0.0223872	1
bin	0.0228096	0
bin	0.023232	0
bin	0.0236544	0
bin	0.0240768	0
bin	0.0244992	0
bin	0.0249216	0
bin	0.025344	0
bin	0.0257664	0
bin	0.0261888	0
bin	0.0266112	0
bin	0.0270336	0
bin	0.027456	0
bin	0.0278784	0
bin	0.0283008	0
bin	0.0287232	0
bin	0.0291456	1
bin	0.029568	0
statistic Network.tor[2] activity_time_of_a_rule_B
field count 281840
field mean 3.5899051030074e-005
field stddev 0.00015079052352057
field min 0
field max 0.005016480613
field sum 10.117788542316
field sqrsum 0.0067716127436704
bin	-inf	0
bin	0	258125
bin	9.6e-005	6570
bin	0.000192	4697
bin	0.000288	3328
bin	0.000384	2454
bin	0.00048	1864
bin	0.000576	1288
bin	0.000672	893
bin	0.000768	617
bin	0.000864	506
bin	0.00096	342
bin	0.001056	247
bin	0.001152	210
bin	0.001248	146
bin	0.001344	106
bin	0.00144	85
bin	0.001536	61
bin	0.001632	59
bin	0.001728	44
bin	0.001824	36
bin	0.00192	28
bin	0.002016	24
bin	0.002112	23
bin	0.002208	12
bin	0.002304	11
bin	0.0024	9
bin	0.002496	5
bin	0.002592	6
bin	0.002688	11
bin	0.002784	3
bin	0.00288	4
bin	0.002976	3
bin	0.003072	5
bin	0.003168	5
bin	0.003264	1
bin	0.00336	3
bin	0.003456	1
bin	0.003552	0
bin	0.003648	1
bin	0.003744	0
bin	0.00384	0
bin	0.003936	1
bin	0.004032	1
bin	0.004128	1
bin	0.004224	0
bin	0.00432	1
bin	0.004416	0
bin	0.004512	1
bin	0.004608	0
bin	0.004704	0
bin	0.0048	1
bin	0.004896	0
bin	0.004992	1
bin	0.005088	0
statistic Network.tor[2] bandwidth_histogram
field count 1200
field mean 321.807
field stddev 16.809799328398
field min 281.52
field max 377.16
field sum 386168.4
field sqrsum 124610494.9536
bin	-inf	0
bin	264	0
bin	266	0
bin	268	0
bin	270	0
bin	272	0
bin	274	0
bin	276	0
bin	278	0
bin	280	1
bin	282	2
bin	284	6
bin	286	5
bin	288	7
bin	290	8
bin	292	12
bin	294	20
bin	296	20
bin	298	22
bin	300	25
bin	302	33
bin	304	41
bin	306	46
bin	308	48
bin	310	49
bin	312	70
bin	314	61
bin	316	58
bin	318	63
bin	320	59
bin	322	52
bin	324	62
bin	326	55
bin	328	31
bin	330	38
bin	332	34
bin	334	25
bin	336	31
bin	338	30
bin	340	22
bin	342	24
bin	344	21
bin	346	21
bin	348	18
bin	350	13
bin	352	10
bin	354	14
bin	356	13
bin	358	7
bin	360	9
bin	362	6
bin	364	6
bin	366	1
bin	368	0
bin	370	0
bin	372	0
bin	374	0
bin	376	1
bin	378	0
scalar Network.tor[2] "cache_content_by_app: " 0.54811715481172
scalar Network.tor[3] "Bandwidth: " 0
statistic Network.tor[3] "flow count"
field count 1200
field mean 644.38583333333
field stddev 20.564193095531
field min 589
field max 706
field sum 773263
field sqrsum 498786763
bin	-inf	0
bin	584	0
bin	586	0
bin	588	1
bin	590	0
bin	592	0
bin	594	2
bin	596	2
bin	598	7
bin	600	4
bin	602	3
bin	604	7
bin	606	10
bin	608	12
bin	610	18
bin	612	12
bin	614	24
bin	616	13
bin	618	32
bin	620	35
bin	622	43
bin	624	27
bin	626	30
bin	628	29
bin	630	29
bin	632	41
bin	634	41
bin	636	34
bin	638	36
bin	640	40
bin	642	42
bin	644	45
bin	646	41
bin	648	37
bin	650	37
bin	652	40
bin	654	47
bin	656	30
bin	658	39
bin	660	50
bin	662	33
bin	664	37
bin	666	29
bin	668	26
bin	670	23
bin	672	19
bin	674	16
bin	676	16
bin	678	13
bin	680	9
bin	682	12
bin	684	6
bin	686	3
bin	688	6
bin	690	3
bin	692	4
bin	694	1
bin	696	2
bin	698	1
bin	700	0
bin	702	0
bin	704	0
bin	706	1
bin	708	0
statistic Network.tor[3] cache_occupancy
field count 1200
field mean 300
field stddev 0
field min 300
field max 300
field sum 360000
field sqrsum 108000000
bin	-inf	0
bin	299	0
bin	300	1200
bin	301	0
statistic Network.tor[3] activity_time_of_a_rule_A
field count 90190
field mean 0.00016671732548416
field stddev 0.00075756120170685
field min 0
field max 0.031385134282
field sum 15.036235585416
field sqrsum 0.054266175578136
bin	-inf	0
bin	-0.5	0
bin	-0.48	0
bin	-0.46	0
bin	-0.44	0
bin	-0.42	0
bin	-0.4	0
bin	-0.38	0
bin	-0.36	0
bin	-0.34	0
bin	-0.32	0
bin	-0.3	0
bin	-0.28	0
bin	-0.26	0
bin	-0.24	0
bin	-0.22	0
bin	-0.2	0
bin	-0.18	0
bin	-0.16	0
bin	-0.14	0
bin	-0.12	0
bin	-0.1	0
bin	-0.08	0
bin	-0.06	0
bin	-0.04	0
bin	-0.02	0
bin	0	90181
bin	0.02	9
bin	0.04	0
bin	0.06	0
bin	0.08	0
bin	0.1	0
bin	0.12	0
bin	0.14	0
bin	0.16	0
bin	0.18	0
bin	0.2	0
bin	0.22	0
bin	0.24	0
bin	0.26	0
bin	0.28	0
bin	0.3	0
bin	0.32	0
bin	0.34	0
bin	0.36	0
bin	0.38	0
bin	0.4	0
bin	0.42	0
bin	0.44	0
bin	0.46	0
bin	0.48	0
bin	0.5	0
statistic Network.tor[3] activity_time_of_a_rule_B
field count 282469
field mean 3.6185739120512e-005
field stddev 0.00014830636853262
field min 0
field max 0.004800345823
field sum 10.221349543632
field sqrsum 0.0065826883077409
bin	-inf	0
bin	0	258137
bin	9.6e-005	6828
bin	0.000192	4788
bin	0.000288	3513
bin	0.000384	2547
bin	0.00048	1840
bin	0.000576	1276
bin	0.000672	946
bin	0.000768	616
bin	0.000864	537
bin	0.00096	348
bin	0.001056	254
bin	0.001152	206
bin	0.001248	164
bin	0.001344	101
bin	0.00144	74
bin	0.001536	57
bin	0.001632	51
bin	0.001728	35
bin	0.001824	26
bin	0.00192	18
bin	0.002016	22
bin	0.002112	13
bin	0.002208	6
bin	0.002304	10
bin	0.0024	12
bin	0.002496	3
bin	0.002592	3
bin	0.002688	3
bin	0.002784	4
bin	0.00288	4
bin	0.002976	3
bin	0.003072	6
bin	0.003168	1
bin	0.003264	0
bin	0.00336	4
bin	0.003456	5
bin	0.003552	2
bin	0.003648	1
bin	0.003744	0
bin	0.00384	0
bin	0.003936	0
bin	0.004032	0
bin	0.004128	1
bin	0.004224	1
bin	0.00432	0
bin	0.004416	1
bin	0.004512	0
bin	0.004608	1
bin	0.004704	0
bin	0.0048	1
bin	0.004896	0
statistic Network.tor[3] bandwidth_histogram
field count 1200
field mean 337.2822
field stddev 27.144461780098
field min 286.56
field max 437.4
field sum 404738.64
field sqrsum 137394588.2688
bin	-inf	0
bin	286	1
bin	288	3
bin	290	0
bin	292	1
bin	294	4
bin	296	2
bin	298	4
bin	300	11
bin	302	12
bin	304	21
bin	306	27
bin	308	40
bin	310	27
bin	312	30
bin	314	43
bin	316	40
bin	318	41
bin	320	39
bin	322	43
bin	324	48
bin	326	52
bin	328	52
bin	330	52
bin	332	46
bin	334	55
bin	336	53
bin	338	56
bin	340	29
bin	342	38
bin	344	33
bin	346	31
bin	348	31
bin	350	20
bin	352	16
bin	354	16
bin	356	11
bin	358	13
bin	360	11
bin	362	9
bin	364	8
bin	366	3
bin	368	10
bin	370	7
bin	372	6
bin	374	4
bin	376	4
bin	378	5
bin	380	2
bin	382	2
bin	384	2
bin	386	3
bin	388	1
bin	390	2
bin	392	2
bin	394	3
bin	396	5
bin	398	1
bin	400	3
bin	402	3
bin	404	3
bin	406	1
bin	408	7
bin	410	6
bin	412	2
bin	414	5
bin	416	5
bin	418	4
bin	420	6
bin	422	6
bin	424	3
bin	426	2
bin	428	5
bin	430	2
bin	432	3
bin	434	1
bin	436	2
bin	438	0
scalar Network.tor[3] "cache_content_by_app: " 0.58403361344538
scalar Network.tor[4] "Bandwidth: " 0
statistic Network.tor[4] "flow count"
field count 1200
field mean 654.3725
field stddev 13.377950205834
field min 615
field max 701
field sum 785247
field sqrsum 514058627
bin	-inf	0
bin	603	0
bin	605	0
bin	607	0
bin	609	0
bin	611	0
bin	613	0
bin	615	5
bin	617	0
bin	619	1
bin	621	1
bin	623	8
bin	625	8
bin	627	11
bin	629	15
bin	631	16
bin	633	19
bin	635	21
bin	637	39
bin	639	39
bin	641	39
bin	643	55
bin	645	50
bin	647	75
bin	649	76
bin	651	66
bin	653	59
bin	655	71
bin	657	70
bin	659	65
bin	661	59
bin	663	45
bin	665	69
bin	667	48
bin	669	37
bin	671	31
bin	673	25
bin	675	18
bin	677	15
bin	679	14
bin	681	8
bin	683	9
bin	685	4
bin	687	5
bin	689	1
bin	691	2
bin	693	0
bin	695	0
bin	697	0
bin	699	0
bin	701	1
bin	703	0
statistic Network.tor[4] cache_occupancy
field count 1200
field mean 300
field stddev 0
field min 300
field max 300
field sum 360000
field sqrsum 108000000
bin	-inf	0
bin	299	0
bin	300	1200
bin	301	0
statistic Network.tor[4] activity_time_of_a_rule_A
field count 91014
field mean 0.00016162778402177
field stddev 0.00068344976356808
field min 0
field max 0.027482296951
field sum 14.710391134957
field sqrsum 0.044890105986002
bin	-inf	0
bin	-0.5	0
bin	-0.48	0
bin	-0.46	0
bin	-0.44	0
bin	-0.42	0
bin	-0.4	0
bin	-0.38	0
bin	-0.36	0
bin	-0.34	0
bin	-0.32	0
bin	-0.3	0
bin	-0.28	0
bin	-0.26	0
bin	-0.24	0
bin	-0.22	0
bin	-0.2	0
bin	-0.18	0
bin	-0.16	0
bin	-0.14	0
bin	-0.12	0
bin	-0.1	0
bin	-0.08	0
bin	-0.06	0
bin	-0.04	0
bin	-0.02	0
bin	0	91010
bin	0.02	4
bin	0.04	0
bin	0.06	0
bin	0.08	0
bin	0.1	0
bin	0.12	0
bin	0.14	0
bin	0.16	0
bin	0.18	0
bin	0.2	0
bin	0.22	0
bin	0.24	0
bin	0.26	0
bin	0.28	0
bin	0.3	0
bin	0.32	0
bin	0.34	0
bin	0.36	0
bin	0.38	0
bin	0.4	0
bin	0.42	0
bin	0.44	0
bin	0.46	0
bin	0.48	0
bin	0.5	0
statistic Network.tor[4] activity_time_of_a_rule_B
field count 283559
field mean 3.70369291245e-005
field stddev 0.00015085571560908
field min 0
field max 0.006208596912
field sum 10.502154585614
field sqrsum 0.0068420236921654
bin	-inf	0
bin	-0.5	0
bin	-0.48	0
bin	-0.46	0
bin	-0.44	0
bin	-0.42	0
bin	-0.4	0
bin	-0.38	0
bin	-0.36	0
bin	-0.34	0
bin	-0.32	0
bin	-0.3	0
bin	-0.28	0
bin	-0.26	0
bin	-0.24	0
bin	-0.22	0
bin	-0.2	0
bin	-0.18	0
bin	-0.16	0
bin	-0.14	0
bin	-0.12	0
bin	-0.1	0
bin	-0.08	0
bin	-0.06	0
bin	-0.04	0
bin	-0.02	0
bin	0	283559
bin	0.02	0
bin	0.04	0
bin	0.06	0
bin	0.08	0
bin	0.1	0
bin	0.12	0
bin	0.14	0
bin	0.16	0
bin	0.18	0
bin	0.2	0
bin	0.22	0
bin	0.24	0
bin	0.26	0
bin	0.28	0
bin	0.3	0
bin	0.32	0
bin	0.34	0
bin	0.36	0
bin	0.38	0
bin	0.4	0
bin	0.42	0
bin	0.44	0
bin	0.46	0
bin	0.48	0
bin	0.5	0
statistic Network.tor[4] bandwidth_histogram
field count 1200
field mean 326.6274
field stddev 23.247645617617
field min 273.84
field max 390.24
field sum 391952.88
field sqrsum 128670553.296
bin	-inf	0
bin	261	0
bin	263	0
bin	265	0
bin	267	0
bin	269	0
bin	271	0
bin	273	1
bin	275	2
bin	277	0
bin	279	1
bin	281	3
bin	283	3
bin	285	7
bin	287	14
bin	289	10
bin	291	14
bin	293	18
bin	295	22
bin	297	26
bin	299	29
bin	301	31
bin	303	37
bin	305	27
bin	307	36
bin	309	35
bin	311	54
bin	313	42
bin	315	46
bin	317	50
bin	319	44
bin	321	47
bin	323	41
bin	325	43
bin	327	34
bin	329	43
bin	331	26
bin	333	32
bin	335	26
bin	337	27
bin	339	30
bin	341	27
bin	343	28
bin	345	13
bin	347	16
bin	349	11
bin	351	17
bin	353	14
bin	355	26
bin	357	10
bin	359	7
bin	361	16
bin	363	15
bin	365	10
bin	367	9
bin	369	17
bin	371	12
bin	373	11
bin	375	13
bin	377	6
bin	379	4
bin	381	3
bin	383	6
bin	385	4
bin	387	3
bin	389	1
bin	391	0
scalar Network.tor[4] "cache_content_by_app: " 0.56903765690377
scalar Network.tor[5] "Bandwidth: " 0
statistic Network.tor[5] "flow count"
field count 1200
field mean 671.6475
field stddev 17.309715931755
field min 622
field max 723
field sum 805977
field sqrsum 541691689
bin	-inf	0
bin	621	1
bin	623	0
bin	625	1
bin	627	2
bin	629	1
bin	631	4
bin	633	8
bin	635	5
bin	637	10
bin	639	11
bin	641	13
bin	643	18
bin	645	20
bin	647	19
bin	649	23
bin	651	25
bin	653	29
bin	655	41
bin	657	50
bin	659	46
bin	661	47
bin	663	46
bin	665	41
bin	667	72
bin	669	52
bin	671	41
bin	673	63
bin	675	45
bin	677	43
bin	679	51
bin	681	39
bin	683	41
bin	685	28
bin	687	41
bin	689	41
bin	691	32
bin	693	38
bin	695	19
bin	697	23
bin	699	14
bin	701	12
bin	703	10
bin	705	11
bin	707	9
bin	709	5
bin	711	3
bin	713	1
bin	715	1
bin	717	1
bin	719	2
bin	721	0
bin	723	1
bin	725	0
statistic Network.tor[5] cache_occupancy
field count 1200
field mean 300
field stddev 0
field min 300
field max 300
field sum 360000
field sqrsum 108000000
bin	-inf	0
bin	299	0
bin	300	1200
bin	301	0
statistic Network.tor[5] activity_time_of_a_rule_A
field count 94659
field mean 0.00017258250384631
field stddev 0.00068298011224968
field min 0
field max 0.035607092827
field sum 16.336487231588
field sqrsum 0.046973736127561
bin	-inf	0
bin	-0.5	0
bin	-0.48	0
bin	-0.46	0
bin	-0.44	0
bin	-0.42	0
bin	-0.4	0
bin	-0.38	0
bin	-0.36	0
bin	-0.34	0
bin	-0.32	0
bin	-0.3	0
bin	-0.28	0
bin	-0.26	0
bin	-0.24	0
bin	-0.22	0
bin	-0.2	0
bin	-0.18	0
bin	-0.16	0
bin	-0.14	0
bin	-0.12	0
bin	-0.1	0
bin	-0.08	0
bin	-0.06	0
bin	-0.04	0
bin	-0.02	0
bin	0	94655
bin	0.02	4
bin	0.04	0
bin	0.06	0
bin	0.08	0
bin	0.1	0
bin	0.12	0
bin	0.14	0
bin	0.16	0
bin	0.18	0
bin	0.2	0
bin	0.22	0
bin	0.24	0
bin	0.26	0
bin	0.28	0
bin	0.3	0
bin	0.32	0
bin	0.34	0
bin	0.36	0
bin	0.38	0
bin	0.4	0
bin	0.42	0
bin	0.44	0
bin	0.46	0
bin	0.48	0
bin	0.5	0
statistic Network.tor[5] activity_time_of_a_rule_B
field count 284976
field mean 3.1666742852826e-005
field stddev 0.00013186351984248
field min 0
field max 0.005470973775
field sum 9.024261711227
field sqrsum 0.0052409108169448
bin	-inf	0
bin	-0.5	0
bin	-0.48	0
bin	-0.46	0
bin	-0.44	0
bin	-0.42	0
bin	-0.4	0
bin	-0.38	0
bin	-0.36	0
bin	-0.34	0
bin	-0.32	0
bin	-0.3	0
bin	-0.28	0
bin	-0.26	0
bin	-0.24	0
bin	-0.22	0
bin	-0.2	0
bin	-0.18	0
bin	-0.16	0
bin	-0.14	0
bin	-0.12	0
bin	-0.1	0
bin	-0.08	0
bin	-0.06	0
bin	-0.04	0
bin	-0.02	0
bin	0	284976
bin	0.02	0
bin	0.04	0
bin	0.06	0
bin	0.08	0
bin	0.1	0
bin	0.12	0
bin	0.14	0
bin	0.16	0
bin	0.18	0
bin	0.2	0
bin	0.22	0
bin	0.24	0
bin	0.26	0
bin	0.28	0
bin	0.3	0
bin	0.32	0
bin	0.34	0
bin	0.36	0
bin	0.38	0
bin	0.4	0
bin	0.42	0
bin	0.44	0
bin	0.46	0
bin	0.48	0
bin	0.5	0
statistic Network.tor[5] bandwidth_histogram
field count 1200
field mean 352.2219
field stddev 18.685880574226
field min 311.04
field max 417.96
field sum 422666.28
field sqrsum 149290965.6048
bin	-inf	0
bin	303	0
bin	305	0
bin	307	0
bin	309	0
bin	311	1
bin	313	2
bin	315	8
bin	317	5
bin	319	8
bin	321	13
bin	323	27
bin	325	19
bin	327	27
bin	329	31
bin	331	34
bin	333	38
bin	335	52
bin	337	52
bin	339	57
bin	341	44
bin	343	43
bin	345	58
bin	347	45
bin	349	50
bin	351	47
bin	353	52
bin	355	49
bin	357	47
bin	359	41
bin	361	33
bin	363	43
bin	365	27
bin	367	32
bin	369	25
bin	371	19
bin	373	19
bin	375	24
bin	377	16
bin	379	13
bin	381	12
bin	383	16
bin	385	11
bin	387	10
bin	389	9
bin	391	8
bin	393	7
bin	395	8
bin	397	2
bin	399	4
bin	401	1
bin	403	3
bin	405	2
bin	407	2
bin	409	1
bin	411	0
bin	413	2
bin	415	0
bin	417	1
bin	419	0
scalar Network.tor[5] "cache_content_by_app: " 0.60169491525424
scalar Network.tor[6] "Bandwidth: " 0
statistic Network.tor[6] "flow count"
field count 1200
field mean 618.465
field stddev 20.216850460332
field min 563
field max 683
field sum 742158
field sqrsum 459488804
bin	-inf	0
bin	546	0
bin	548	0
bin	550	0
bin	552	0
bin	554	0
bin	556	0
bin	558	0
bin	560	0
bin	562	1
bin	564	2
bin	566	0
bin	568	0
bin	570	1
bin	572	2
bin	574	4
bin	576	4
bin	578	2
bin	580	9
bin	582	9
bin	584	15
bin	586	20
bin	588	14
bin	590	23
bin	592	21
bin	594	28
bin	596	24
bin	598	33
bin	600	53
bin	602	42
bin	604	39
bin	606	37
bin	608	41
bin	610	45
bin	612	54
bin	614	41
bin	616	36
bin	618	38
bin	620	35
bin	622	46
bin	624	48
bin	626	46
bin	628	40
bin	630	33
bin	632	30
bin	634	38
bin	636	26
bin	638	34
bin	640	20
bin	642	18
bin	644	15
bin	646	21
bin	648	21
bin	650	18
bin	652	15
bin	654	13
bin	656	10
bin	658	9
bin	660	9
bin	662	4
bin	664	4
bin	666	1
bin	668	1
bin	670	1
bin	672	1
bin	674	4
bin	676	0
bin	678	0
bin	680	0
bin	682	1
bin	684	0
statistic Network.tor[6] cache_occupancy
field count 1200
field mean 300
field stddev 0
field min 300
field max 300
field sum 360000
field sqrsum 108000000
bin	-inf	0
bin	299	0
bin	300	1200
bin	301	0
statistic Network.tor[6] activity_time_of_a_rule_A
field count 88887
field mean 0.00016068896375701
field stddev 0.00075215075755174
field min 0
field max 0.041932147166
field sum 14.283159921469
field sqrsum 0.052580690685702
bin	-inf	0
bin	-0.5	0
bin	-0.48	0
bin	-0.46	0
bin	-0.44	0
bin	-0.42	0
bin	-0.4	0
bin	-0.38	0
bin	-0.36	0
bin	-0.34	0
bin	-0.32	0
bin	-0.3	0
bin	-0.28	0
bin	-0.26	0
bin	-0.24	0
bin	-0.22	0
bin	-0.2	0
bin	-0.18	0
bin	-0.16	0
bin	-0.14	0
bin	-0.12	0
bin	-0.1	0
bin	-0.08	0
bin	-0.06	0
bin	-0.04	0
bin	-0.02	0
bin	0	88879
bin	0.02	7
bin	0.04	1
bin	0.06	0
bin	0.08	0
bin	0.1	0
bin	0.12	0
bin	0.14	0
bin	0.16	0
bin	0.18	0
bin	0.2	0
bin	0.22	0
bin	0.24	0
bin	0.26	0
bin	0.28	0
bin	0.3	0
bin	0.32	0
bin	0.34	0
bin	0.36	0
bin	0.38	0
bin	0.4	0
bin	0.42	0
bin	0.44	0
bin	0.46	0
bin	0.48	0
bin	0.5	0
statistic Network.tor[6] activity_time_of_a_rule_B
field count 281608
field mean 3.8810369075336e-005
field stddev 0.00016085010416844
field min 0
field max 0.006854900877
field sum 10.929310414567
field sqrsum 0.0077101197729178
bin	-inf	0
bin	-0.5	0
bin	-0.48	0
bin	-0.46	0
bin	-0.44	0
bin	-0.42	0
bin	-0.4	0
bin	-0.38	0
bin	-0.36	0
bin	-0.34	0
bin	-0.32	0
bin	-0.3	0
bin	-0.28	0
bin	-0.26	0
bin	-0.24	0
bin	-0.22	0
bin	-0.2	0
bin	-0.18	0
bin	-0.16	0
bin	-0.14	0
bin	-0.12	0
bin	-0.1	0
bin	-0.08	0
bin	-0.06	0
bin	-0.04	0
bin	-0.02	0
bin	0	281608
bin	0.02	0
bin	0.04	0
bin	0.06	0
bin	0.08	0
bin	0.1	0
bin	0.12	0
bin	0.14	0
bin	0.16	0
bin	0.18	0
bin	0.2	0
bin	0.22	0
bin	0.24	0
bin	0.26	0
bin	0.28	0
bin	0.3	0
bin	0.32	0
bin	0.34	0
bin	0.36	0
bin	0.38	0
bin	0.4	0
bin	0.42	0
bin	0.44	0
bin	0.46	0
bin	0.48	0
bin	0.5	0
statistic Network.tor[6] bandwidth_histogram
field count 1200
field mean 301.3388
field stddev 19.38698623448
field min 260.52
field max 374.04
field sum 361606.56
field sqrsum 109416737.2896
bin	-inf	0
bin	242	0
bin	244	0
bin	246	0
bin	248	0
bin	250	0
bin	252	0
bin	254	0
bin	256	0
bin	258	0
bin	260	4
bin	262	3
bin	264	4
bin	266	7
bin	268	17
bin	270	16
bin	272	19
bin	274	22
bin	276	30
bin	278	42
bin	280	26
bin	282	42
bin	284	42
bin	286	41
bin	288	47
bin	290	49
bin	292	59
bin	294	50
bin	296	55
bin	298	45
bin	300	36
bin	302	44
bin	304	48
bin	306	37
bin	308	41
bin	310	33
bin	312	46
bin	314	37
bin	316	33
bin	318	36
bin	320	19
bin	322	25
bin	324	21
bin	326	18
bin	328	13
bin	330	16
bin	332	11
bin	334	6
bin	336	9
bin	338	9
bin	340	2
bin	342	6
bin	344	6
bin	346	5
bin	348	2
bin	350	6
bin	352	2
bin	354	0
bin	356	2
bin	358	3
bin	360	3
bin	362	0
bin	364	0
bin	366	0
bin	368	0
bin	370	3
bin	372	1
bin	374	1
bin	376	0
scalar Network.tor[6] "cache_content_by_app: " 0.53191489361702
scalar Network.tor[7] "Bandwidth: " 0
statistic Network.tor[7] "flow count"
field count 1200
field mean 621.67333333333
field stddev 14.898543364511
field min 576
field max 666
field sum 746008
field sqrsum 464039418
bin	-inf	0
bin	574	0
bin	576	1
bin	578	1
bin	580	0
bin	582	3
bin	584	0
bin	586	5
bin	588	6
bin	590	4
bin	592	17
bin	594	13
bin	596	17
bin	598	15
bin	600	23
bin	602	21
bin	604	31
bin	606	51
bin	608	47
bin	610	58
bin	612	54
bin	614	55
bin	616	51
bin	618	67
bin	620	65
bin	622	70
bin	624	49
bin	626	53
bin	628	42
bin	630	56
bin	632	57
bin	634	51
bin	636	35
bin	638	36
bin	640	33
bin	642	28
bin	644	16
bin	646	18
bin	648	15
bin	650	10
bin	652	9
bin	654	5
bin	656	3
bin	658	2
bin	660	4
bin	662	2
bin	664	0
bin	666	1
bin	668	0
statistic Network.tor[7] cache_occupancy
field count 1200
field mean 300
field stddev 0
field min 300
field max 300
field sum 360000
field sqrsum 108000000
bin	-inf	0
bin	299	0
bin	300	1200
bin	301	0
statistic Network.tor[7] activity_time_of_a_rule_A
field count 88793
field mean 0.00015924965977495
field stddev 0.00074684044881188
field min 0
field max 0.026247902083
field sum 14.140255040397
field sqrsum 0.051777402890226
bin	-inf	0
bin	-0.5	0
bin	-0.48	0
bin	-0.46	0
bin	-0.44	0
bin	-0.42	0
bin	-0.4	0
bin	-0.38	0
bin	-0.36	0
bin	-0.34	0
bin	-0.32	0
bin	-0.3	0
bin	-0.28	0
bin	-0.26	0
bin	-0.24	0
bin	-0.22	0
bin	-0.2	0
bin	-0.18	0
bin	-0.16	0
bin	-0.14	0
bin	-0.12	0
bin	-0.1	0
bin	-0.08	0
bin	-0.06	0
bin	-0.04	0
bin	-0.02	0
bin	0	88785
bin	0.02	8
bin	0.04	0
bin	0.06	0
bin	0.08	0
bin	0.1	0
bin	0.12	0
bin	0.14	0
bin	0.16	0
bin	0.18	0
bin	0.2	0
bin	0.22	0
bin	0.24	0
bin	0.26	0
bin	0.28	0
bin	0.3	0
bin	0.32	0
bin	0.34	0
bin	0.36	0
bin	0.38	0
bin	0.4	0
bin	0.42	0
bin	0.44	0
bin	0.46	0
bin	0.48	0
bin	0.5	0
statistic Network.tor[7] activity_time_of_a_rule_B
field count 281423
field mean 3.89565453718e-005
field stddev 0.00015955077446028
field min 0
field max 0.006652774523
field sum 10.963267868168
field sqrsum 0.0075910960101492
bin	-inf	0
bin	0	259775
bin	0.000144	8098
bin	0.000288	4932
bin	0.000432	3161
bin	0.000576	1922
bin	0.00072	1243
bin	0.000864	779
bin	0.001008	475
bin	0.001152	324
bin	0.001296	211
bin	0.00144	138
bin	0.001584	100
bin	0.001728	75
bin	0.001872	47
bin	0.002016	25
bin	0.00216	22
bin	0.002304	22
bin	0.002448	16
bin	0.002592	11
bin	0.002736	15
bin	0.00288	11
bin	0.003024	3
bin	0.003168	1
bin	0.003312	5
bin	0.003456	3
bin	0.0036	3
bin	0.003744	0
bin	0.003888	1
bin	0.004032	1
bin	0.004176	0
bin	0.00432	1
bin	0.004464	1
bin	0.004608	0
bin	0.004752	1
bin	0.004896	0
bin	0.00504	0
bin	0.005184	0
bin	0.005328	0
bin	0.005472	0
bin	0.005616	0
bin	0.00576	0
bin	0.005904	0
bin	0.006048	0
bin	0.006192	0
bin	0.006336	0
bin	0.00648	0
bin	0.006624	1
bin	0.006768	0
statistic Network.tor[7] bandwidth_histogram
field count 1200
field mean 310.7186
field stddev 12.903859423834
field min 272.76
field max 352.2
field sum 372862.32
field sqrsum 116054903.0592
bin	-inf	0
bin	266	0
bin	267	0
bin	268	0
bin	269	0
bin	270	0
bin	271	0
bin	272	1
bin	273	0
bin	274	0
bin	275	1
bin	276	1
bin	277	1
bin	278	1
bin	279	1
bin	280	2
bin	281	1
bin	282	4
bin	283	5
bin	284	6
bin	285	8
bin	286	7
bin	287	3
bin	288	9
bin	289	4
bin	290	8
bin	291	16
bin	292	19
bin	293	23
bin	294	25
bin	295	17
bin	296	24
bin	297	27
bin	298	21
bin	299	30
bin	300	33
bin	301	21
bin	302	27
bin	303	32
bin	304	34
bin	305	29
bin	306	37
bin	307	25
bin	308	36
bin	309	30
bin	310	33
bin	311	33
bin	312	36
bin	313	39
bin	314	28
bin	315	32
bin	316	36
bin	317	23
bin	318	35
bin	319	37
bin	320	33
bin	321	30
bin	322	29
bin	323	29
bin	324	19
bin	325	24
bin	326	15
bin	327	16
bin	328	17
bin	329	7
bin	330	17
bin	331	5
bin	332	6
bin	333	10
bin	334	6
bin	335	10
bin	336	6
bin	337	4
bin	338	0
bin	339	0
bin	340	1
bin	341	1
bin	342	4
bin	343	4
bin	344	1
bin	345	1
bin	346	0
bin	347	1
bin	348	1
bin	349	1
bin	350	0
bin	351	0
bin	352	1
bin	353	0
scalar Network.tor[7] "cache_content_by_app: " 0.51666666666667
scalar Network.tor[8] "Bandwidth: " 0
statistic Network.tor[8] "flow count"
field count 1200
field mean 636.6125
field stddev 19.670658082734
field min 582
field max 687
field sum 763935
field sqrsum 486794505
bin	-inf	0
bin	581	1
bin	583	0
bin	585	2
bin	587	1
bin	589	5
bin	591	5
bin	593	7
bin	595	7
bin	597	4
bin	599	5
bin	601	15
bin	603	16
bin	605	18
bin	607	14
bin	609	15
bin	611	23
bin	613	24
bin	615	27
bin	617	31
bin	619	37
bin	621	23
bin	623	43
bin	625	42
bin	627	54
bin	629	47
bin	631	44
bin	633	43
bin	635	51
bin	637	43
bin	639	44
bin	641	51
bin	643	47
bin	645	39
bin	647	38
bin	649	31
bin	651	29
bin	653	37
bin	655	33
bin	657	27
bin	659	29
bin	661	20
bin	663	24
bin	665	24
bin	667	12
bin	669	17
bin	671	11
bin	673	14
bin	675	4
bin	677	9
bin	679	6
bin	681	5
bin	683	1
bin	685	0
bin	687	1
bin	689	0
bin	691	0
bin	693	0
bin	695	0
bin	697	0
statistic Network.tor[8] cache_occupancy
field count 1200
field mean 300
field stddev 0
field min 300
field max 300
field sum 360000
field sqrsum 108000000
bin	-inf	0
bin	299	0
bin	300	1200
bin	301	0
statistic Network.tor[8] activity_time_of_a_rule_A
field count 89341
field mean 0.00016448448069041
field stddev 0.00075572549091193
field min 0
field max 0.032075165359
field sum 14.695207989362
field sqrsum 0.053441085368409
bin	-inf	0
bin	0	83137
bin	0.00064	2429
bin	0.00128	1434
bin	0.00192	814
bin	0.00256	493
bin	0.0032	309
bin	0.00384	208
bin	0.00448	141
bin	0.00512	78
bin	0.00576	63
bin	0.0064	49
bin	0.00704	46
bin	0.00768	26
bin	0.00832	18
bin	0.00896	25
bin	0.0096	12
bin	0.01024	13
bin	0.01088	8
bin	0.01152	5
bin	0.01216	7
bin	0.0128	3
bin	0.01344	2
bin	0.01408	3
bin	0.01472	2
bin	0.01536	5
bin	0.016	1
bin	0.01664	0
bin	0.01728	0
bin	0.01792	1
bin	0.01856	0
bin	0.0192	1
bin	0.01984	2
bin	0.02048	0
bin	0.02112	1
bin	0.02176	1
bin	0.0224	0
bin	0.02304	2
bin	0.02368	0
bin	0.02432	0
bin	0.02496	0
bin	0.0256	1
bin	0.02624	0
bin	0.02688	0
bin	0.02752	0
bin	0.02816	0
bin	0.0288	0
bin	0.02944	0
bin	0.03008	0
bin	0.03072	0
bin	0.03136	0
bin	0.032	1
bin	0.03264	0
statistic Network.tor[8] activity_time_of_a_rule_B
field count 282078
field mean 3.7630157550993e-005
field stddev 0.00015331620546657
field min 0
field max 0.004708165565
field sum 10.614639581669
field sqrsum 0.0070298927090814
bin	-inf	0
bin	0	254118
bin	6.4e-005	5416
bin	0.000128	4590
bin	0.000192	3195
bin	0.000256	2874
bin	0.00032	2255
bin	0.000384	1732
bin	0.000448	1594
bin	0.000512	1136
bin	0.000576	986
bin	0.00064	807
bin	0.000704	610
bin	0.000768	501
bin	0.000832	428
bin	0.000896	294
bin	0.00096	261
bin	0.001024	182
bin	0.001088	171
bin	0.001152	151
bin	0.001216	98
bin	0.00128	104
bin	0.001344	97
bin	0.001408	59
bin	0.001472	47
bin	0.001536	59
bin	0.0016	47
bin	0.001664	35
bin	0.001728	33
bin	0.001792	20
bin	0.001856	31
bin	0.00192	16
bin	0.001984	11
bin	0.002048	15
bin	0.002112	15
bin	0.002176	8
bin	0.00224	16
bin	0.002304	6
bin	0.002368	5
bin	0.002432	6
bin	0.002496	3
bin	0.00256	5
bin	0.002624	2
bin	0.002688	3
bin	0.002752	5
bin	0.002816	5
bin	0.00288	2
bin	0.002944	3
bin	0.003008	3
bin	0.003072	3
bin	0.003136	2
bin	0.0032	0
bin	0.003264	0
bin	0.003328	2
bin	0.003392	0
bin	0.003456	1
bin	0.00352	1
bin	0.003584	1
bin	0.003648	0
bin	0.003712	1
bin	0.003776	1
bin	0.00384	1
bin	0.003904	0
bin	0.003968	0
bin	0.004032	0
bin	0.004096	0
bin	0.00416	0
bin	0.004224	0
bin	0.004288	2
bin	0.004352	0
bin	0.004416	2
bin	0.00448	0
bin	0.004544	0
bin	0.004608	0
bin	0.004672	1
bin	0.004736	0
statistic Network.tor[8] bandwidth_histogram
field count 1200
field mean 320.6187
field stddev 17.2494611965
field min 270.6
field max 377.52
field sum 384742.44
field sqrsum 123712376.0976
bin	-inf	0
bin	270	1
bin	272	0
bin	274	0
bin	276	0
bin	278	1
bin	280	2
bin	282	4
bin	284	7
bin	286	5
bin	288	6
bin	290	10
bin	292	5
bin	294	24
bin	296	23
bin	298	22
bin	300	40
bin	302	44
bin	304	36
bin	306	59
bin	308	50
bin	310	55
bin	312	58
bin	314	57
bin	316	65
bin	318	72
bin	320	56
bin	322	52
bin	324	52
bin	326	44
bin	328	29
bin	330	45
bin	332	35
bin	334	23
bin	336	23
bin	338	24
bin	340	14
bin	342	20
bin	344	28
bin	346	18
bin	348	16
bin	350	9
bin	352	12
bin	354	12
bin	356	11
bin	358	2
bin	360	6
bin	362	7
bin	364	3
bin	366	5
bin	368	2
bin	370	3
bin	372	2
bin	374	0
bin	376	1
bin	378	0
bin	380	0
bin	382	0
bin	384	0
bin	386	0
bin	388	0
bin	390	0
bin	392	0
bin	394	0
bin	396	0
scalar Network.tor[8] "cache_content_by_app: " 0.51666666666667
scalar Network.tor[9] "Bandwidth: " 0
statistic Network.tor[9] "flow count"
field count 1200
field mean 638.35166666667
field stddev 18.788662594518
field min 571
field max 692
field sum 766022
field sqrsum 489414684
bin	-inf	0
bin	570	1
bin	572	0
bin	574	0
bin	576	0
bin	578	0
bin	580	0
bin	582	0
bin	584	5
bin	586	5
bin	588	2
bin	590	3
bin	592	1
bin	594	8
bin	596	8
bin	598	2
bin	600	9
bin	602	9
bin	604	12
bin	606	14
bin	608	10
bin	610	18
bin	612	10
bin	614	20
bin	616	16
bin	618	20
bin	620	32
bin	622	31
bin	624	40
bin	626	31
bin	628	41
bin	630	50
bin	632	38
bin	634	64
bin	636	54
bin	638	64
bin	640	59
bin	642	42
bin	644	52
bin	646	60
bin	648	42
bin	650	36
bin	652	36
bin	654	45
bin	656	33
bin	658	31
bin	660	30
bin	662	17
bin	664	18
bin	666	16
bin	668	18
bin	670	10
bin	672	9
bin	674	7
bin	676	9
bin	678	0
bin	680	2
bin	682	1
bin	684	3
bin	686	0
bin	688	3
bin	690	2
bin	692	1
bin	694	0
statistic Network.tor[9] cache_occupancy
field count 1200
field mean 300
field stddev 0
field min 300
field max 300
field sum 360000
field sqrsum 108000000
bin	-inf	0
bin	299	0
bin	300	1200
bin	301	0
statistic Network.tor[9] activity_time_of_a_rule_A
field count 90117
field mean 0.00016411371148717
field stddev 0.0007493768699555
field min 0
field max 0.037969256279
field sum 14.789435338089
field sqrsum 0.053033203134735
bin	-inf	0
bin	-0.5	0
bin	-0.48	0
bin	-0.46	0
bin	-0.44	0
bin	-0.42	0
bin	-0.4	0
bin	-0.38	0
bin	-0.36	0
bin	-0.34	0
bin	-0.32	0
bin	-0.3	0
bin	-0.28	0
bin	-0.26	0
bin	-0.24	0
bin	-0.22	0
bin	-0.2	0
bin	-0.18	0
bin	-0.16	0
bin	-0.14	0
bin	-0.12	0
bin	-0.1	0
bin	-0.08	0
bin	-0.06	0
bin	-0.04	0
bin	-0.02	0
bin	0	90110
bin	0.02	7
bin	0.04	0
bin	0.06	0
bin	0.08	0
bin	0.1	0
bin	0.12	0
bin	0.14	0
bin	0.16	0
bin	0.18	0
bin	0.2	0
bin	0.22	0
bin	0.24	0
bin	0.26	0
bin	0.28	0
bin	0.3	0
bin	0.32	0
bin	0.34	0
bin	0.36	0
bin	0.38	0
bin	0.4	0
bin	0.42	0
bin	0.44	0
bin	0.46	0
bin	0.48	0
bin	0.5	0
statistic Network.tor[9] activity_time_of_a_rule_B
field count 282282
field mean 3.6882001649471e-005
field stddev 0.00015188387659064
field min 0
field max 0.004870111871
field sum 10.411125189616
field sqrsum 0.0068958422195121
bin	-inf	0
bin	0	257756
bin	9.6e-005	6882
bin	0.000192	4827
bin	0.000288	3446
bin	0.000384	2553
bin	0.00048	1818
bin	0.000576	1357
bin	0.000672	953
bin	0.000768	675
bin	0.000864	513
bin	0.00096	357
bin	0.001056	240
bin	0.001152	183
bin	0.001248	150
bin	0.001344	97
bin	0.00144	118
bin	0.001536	68
bin	0.001632	54
bin	0.001728	50
bin	0.001824	28
bin	0.00192	35
bin	0.002016	17
bin	0.002112	15
bin	0.002208	18
bin	0.002304	14
bin	0.0024	12
bin	0.002496	3
bin	0.002592	4
bin	0.002688	10
bin	0.002784	2
bin	0.00288	2
bin	0.002976	1
bin	0.003072	4
bin	0.003168	2
bin	0.003264	4
bin	0.00336	2
bin	0.003456	1
bin	0.003552	1
bin	0.003648	3
bin	0.003744	2
bin	0.00384	0
bin	0.003936	2
bin	0.004032	1
bin	0.004128	0
bin	0.004224	0
bin	0.00432	1
bin	0.004416	0
bin	0.004512	0
bin	0.004608	0
bin	0.004704	0
bin	0.0048	1
bin	0.004896	0
statistic Network.tor[9] bandwidth_histogram
field count 1200
field mean 324.988
field stddev 21.506267201459
field min 274.2
field max 389.28
field sum 389985.6
field sqrsum 127295201.088
bin	-inf	0
bin	256	0
bin	258	0
bin	260	0
bin	262	0
bin	264	0
bin	266	0
bin	268	0
bin	270	0
bin	272	0
bin	274	1
bin	276	5
bin	278	5
bin	280	7
bin	282	7
bin	284	7
bin	286	8
bin	288	10
bin	290	12
bin	292	12
bin	294	27
bin	296	22
bin	298	21
bin	300	18
bin	302	33
bin	304	29
bin	306	34
bin	308	37
bin	310	31
bin	312	50
bin	314	47
bin	316	33
bin	318	52
bin	320	60
bin	322	54
bin	324	36
bin	326	64
bin	328	40
bin	330	43
bin	332	22
bin	334	42
bin	336	35
bin	338	24
bin	340	25
bin	342	28
bin	344	26
bin	346	18
bin	348	21
bin	350	12
bin	352	11
bin	354	13
bin	356	12
bin	358	11
bin	360	7
bin	362	19
bin	364	7
bin	366	8
bin	368	21
bin	370	8
bin	372	5
bin	374	7
bin	376	5
bin	378	5
bin	380	0
bin	382	2
bin	384	0
bin	386	0
bin	388	1
bin	390	0
bin	392	0
scalar Network.tor[9] "cache_content_by_app: " 0.54661016949153
scalar Network.agg[0] "Bandwidth: " 0
statistic Network.agg[0] "flow count"
field count 1200
field mean 3556.0191666667
field stddev 27.373982387139
field min 3454
field max 3634
field sum 4267223
field sqrsum 15175225229
bin	-inf	0
bin	3452	1
bin	3456	0
bin	3460	1
bin	3464	1
bin	3468	1
bin	3472	2
bin	3476	5
bin	3480	7
bin	3484	5
bin	3488	3
bin	3492	2
bin	3496	8
bin	3500	4
bin	3504	6
bin	3508	15
bin	3512	13
bin	3516	24
bin	3520	29
bin	3524	41
bin	3528	39
bin	3532	54
bin	3536	63
bin	3540	66
bin	3544	50
bin	3548	67
bin	3552	71
bin	3556	70
bin	3560	63
bin	3564	82
bin	3568	49
bin	3572	55
bin	3576	55
bin	3580	56
bin	3584	44
bin	3588	41
bin	3592	33
bin	3596	24
bin	3600	14
bin	3604	9
bin	3608	8
bin	3612	9
bin	3616	5
bin	3620	1
bin	3624	3
bin	3628	0
bin	3632	1
bin	3636	0
bin	3640	0
bin	3644	0
bin	3648	0
bin	3652	0
bin	3656	0
bin	3660	0
statistic Network.agg[0] cache_occupancy
field count 1200
field mean 1500
field stddev 0
field min 1500
field max 1500
field sum 1800000
field sqrsum 2700000000
bin	-inf	0
bin	1499	0
bin	1500	1200
bin	1501	0
statistic Network.agg[0] activity_time_of_a_rule_A
field count 77172
field mean 0.0002479027337803
field stddev 0.00028819034477084
field min 0
field max 0.003222360693
field sum 19.131149771293
field sqrsum 0.011151999468132
bin	-inf	0
bin	0	18409
bin	4e-005	8521
bin	8e-005	6927
bin	0.00012	5858
bin	0.00016	4998
bin	0.0002	4318
bin	0.00024	3583
bin	0.00028	3136
bin	0.00032	2759
bin	0.00036	2420
bin	0.0004	2005
bin	0.00044	1841
bin	0.00048	1548
bin	0.00052	1398
bin	0.00056	1161
bin	0.0006	1061
bin	0.00064	917
bin	0.00068	770
bin	0.00072	732
bin	0.00076	601
bin	0.0008	543
bin	0.00084	432
bin	0.00088	367
bin	0.00092	382
bin	0.00096	294
bin	0.001	280
bin	0.00104	229
bin	0.00108	210
bin	0.00112	188
bin	0.00116	158
bin	0.0012	156
bin	0.00124	117
bin	0.00128	109
bin	0.00132	80
bin	0.00136	91
bin	0.0014	72
bin	0.00144	66
bin	0.00148	47
bin	0.00152	54
bin	0.00156	42
bin	0.0016	37
bin	0.00164	31
bin	0.00168	22
bin	0.00172	21
bin	0.00176	27
bin	0.0018	18
bin	0.00184	9
bin	0.00188	16
bin	0.00192	19
bin	0.00196	13
bin	0.002	6
bin	0.00204	7
bin	0.00208	11
bin	0.00212	8
bin	0.00216	7
bin	0.0022	4
bin	0.00224	5
bin	0.00228	5
bin	0.00232	1
bin	0.00236	2
bin	0.0024	3
bin	0.00244	3
bin	0.00248	6
bin	0.00252	0
bin	0.00256	4
bin	0.0026	2
bin	0.00264	1
bin	0.00268	1
bin	0.00272	0
bin	0.00276	0
bin	0.0028	0
bin	0.00284	0
bin	0.00288	0
bin	0.00292	1
bin	0.00296	0
bin	0.003	0
bin	0.00304	0
bin	0.00308	0
bin	0.00312	0
bin	0.00316	1
bin	0.0032	1
bin	0.00324	0
statistic Network.agg[0] activity_time_of_a_rule_B
field count 257415
field mean 0.00041884202065405
field stddev 0.00049932676940784
field min 0
field max 0.009849760208
field sum 107.81621874666
field sqrsum 0.10933828060966
bin	-inf	0
bin	0	94299
bin	0.00016	51597
bin	0.00032	33715
bin	0.00048	23096
bin	0.00064	15603
bin	0.0008	10776
bin	0.00096	7468
bin	0.00112	5485
bin	0.00128	3893
bin	0.00144	2852
bin	0.0016	2062
bin	0.00176	1587
bin	0.00192	1142
bin	0.00208	835
bin	0.00224	672
bin	0.0024	523
bin	0.00256	409
bin	0.00272	282
bin	0.00288	218
bin	0.00304	157
bin	0.0032	139
bin	0.00336	104
bin	0.00352	101
bin	0.00368	73
bin	0.00384	58
bin	0.004	46
bin	0.00416	41
bin	0.00432	33
bin	0.00448	22
bin	0.00464	22
bin	0.0048	19
bin	0.00496	15
bin	0.00512	16
bin	0.00528	11
bin	0.00544	7
bin	0.0056	3
bin	0.00576	6
bin	0.00592	3
bin	0.00608	2
bin	0.00624	4
bin	0.0064	1
bin	0.00656	4
bin	0.00672	1
bin	0.00688	2
bin	0.00704	0
bin	0.0072	2
bin	0.00736	1
bin	0.00752	1
bin	0.00768	2
bin	0.00784	1
bin	0.008	1
bin	0.00816	0
bin	0.00832	0
bin	0.00848	0
bin	0.00864	0
bin	0.0088	0
bin	0.00896	2
bin	0.00912	0
bin	0.00928	0
bin	0.00944	0
bin	0.0096	0
bin	0.00976	1
bin	0.00992	0
statistic Network.agg[0] bandwidth_histogram
field count 0
field mean nan
field stddev nan
field min nan
field max nan
field sum 0
field sqrsum 0
bin	-inf	0
bin	0	0
bin	1	0
scalar Network.agg[0] "cache_content_by_app: " 0.16294458229942
statistic Network.dest "miss count"
field count 32587148
field mean 0.57190899307911
field stddev 0.72933646891265
field min 0
field max 2
field sum 18636883
field sqrsum 27992737
bin	-inf	0
bin	0	18628192
bin	1	9281029
bin	2	4677927
bin	3	0
statistic Network.dest "out of order"
field count 32587148
field mean 1.0982712878095
field stddev 10.035463750127
field min -22
field max 5100
field sum 35789529
field sqrsum 3321175545
bin	-inf	0
bin	-50	32579809
bin	50	1427
bin	150	1441
bin	250	1389
bin	350	1469
bin	450	464
bin	550	79
bin	650	95
bin	750	81
bin	850	89
bin	950	88
bin	1050	61
bin	1150	57
bin	1250	65
bin	1350	57
bin	1450	60
bin	1550	54
bin	1650	39
bin	1750	46
bin	1850	34
bin	1950	44
bin	2050	42
bin	2150	27
bin	2250	28
bin	2350	21
bin	2450	15
bin	2550	19
bin	2650	10
bin	2750	14
bin	2850	7
bin	2950	6
bin	3050	1
bin	3150	1
bin	3250	1
bin	3350	0
bin	3450	1
bin	3550	3
bin	3650	0
bin	3750	1
bin	3850	0
bin	3950	1
bin	4050	1
bin	4150	0
bin	4250	0
bin	4350	0
bin	4450	0
bin	4550	0
bin	4650	0
bin	4750	0
bin	4850	0
bin	4950	0
bin	5050	1
bin	5150	0
statistic Network.dest "bandwidth to destination"
field count 1200
field mean 3258714800000
field stddev 52249478807.403
field min 3117360000000
field max 3433560000000
field sum 3.91045776e+015
field sqrsum 1.2746339856922e+028
bin	-inf	0
bin	3090000000000	0
bin	3095000000000	0
bin	3100000000000	0
bin	3105000000000	0
bin	3110000000000	0
bin	3115000000000	1
bin	3120000000000	2
bin	3125000000000	2
bin	3130000000000	0
bin	3135000000000	0
bin	3140000000000	1
bin	3145000000000	2
bin	3150000000000	3
bin	3155000000000	8
bin	3160000000000	1
bin	3165000000000	8
bin	3170000000000	15
bin	3175000000000	19
bin	3180000000000	13
bin	3185000000000	25
bin	3190000000000	19
bin	3195000000000	25
bin	3200000000000	29
bin	3205000000000	40
bin	3210000000000	35
bin	3215000000000	34
bin	3220000000000	40
bin	3225000000000	37
bin	3230000000000	53
bin	3235000000000	51
bin	3240000000000	48
bin	3245000000000	45
bin	3250000000000	39
bin	3255000000000	39
bin	3260000000000	52
bin	3265000000000	44
bin	3270000000000	41
bin	3275000000000	51
bin	3280000000000	45
bin	3285000000000	39
bin	3290000000000	36
bin	3295000000000	31
bin	3300000000000	29
bin	3305000000000	24
bin	3310000000000	19
bin	3315000000000	20
bin	3320000000000	19
bin	3325000000000	7
bin	3330000000000	11
bin	3335000000000	11
bin	3340000000000	13
bin	3345000000000	4
bin	3350000000000	8
bin	3355000000000	6
bin	3360000000000	11
bin	3365000000000	9
bin	3370000000000	3
bin	3375000000000	4
bin	3380000000000	2
bin	3385000000000	8
bin	3390000000000	0
bin	3395000000000	4
bin	3400000000000	2
bin	3405000000000	2
bin	3410000000000	3
bin	3415000000000	5
bin	3420000000000	1
bin	3425000000000	1
bin	3430000000000	1
bin	3435000000000	0
statistic Network.dest miss_count_by_apps
field count 32587148
field mean 0.81706048654519
field stddev 0.8728498133641
field min 0
field max 2.5
field sum 26625671
field sqrsum 46581849
bin	-inf	0
bin	0	13943788
bin	0.05	0
bin	0.1	0
bin	0.15	0
bin	0.2	0
bin	0.25	0
bin	0.3	0
bin	0.35	0
bin	0.4	0
bin	0.45	0
bin	0.5	4684404
bin	0.55	0
bin	0.6	0
bin	0.65	0
bin	0.7	0
bin	0.75	0
bin	0.8	0
bin	0.85	0
bin	0.9	0
bin	0.95	0
bin	1	1289403
bin	1.05	0
bin	1.1	0
bin	1.15	0
bin	1.2	0
bin	1.25	0
bin	1.3	0
bin	1.35	0
bin	1.4	0
bin	1.45	0
bin	1.5	7991626
bin	1.55	0
bin	1.6	0
bin	1.65	0
bin	1.7	0
bin	1.75	0
bin	1.8	0
bin	1.85	0
bin	1.9	0
bin	1.95	0
bin	2	1376381
bin	2.05	0
bin	2.1	0
bin	2.15	0
bin	2.2	0
bin	2.25	0
bin	2.3	0
bin	2.35	0
bin	2.4	0
bin	2.45	0
bin	2.5	3301546
bin	2.55	0
bin	2.6	0
bin	2.65	0
scalar Network.dest "Simulation duration (in minutes). By chrono library: " 3.8333333333333

