version 2
run General-9-20230911-19:28:00-10472
attr configname General
attr datetime 20230911-19:28:00
attr experiment General
attr inifile omnetpp.ini
attr iterationvars "$endSim=3.12s, $hosts=15000, $SizeDist=i-hadoop, $p=0.5, $scale=1, $alg=PushCount, $diversityTh=2, $pAlg=0.5, $countTh=4, $packetIndexAgg=4, $packetIndexCosw=4, $NumOfToRs=10, $cacheToR=300, $cacheAgg=10*300*0.5, $ThInAgg=3, $thInCons=2.5e9, $rate=1600000000000, $S=PaperResult/PushCount p = 0.5 th in Agg = 3 countTh = 4 App A=(Hadoop 2.5e9 t 4) App B (avg(Hadoop) 2.5e9 d 4)/end time = 3.12s CToR = 300/"
attr iterationvarsf endSim=3.12s,hosts=15000,SizeDist=i-hadoop,p=0.5,scale=1,alg=PushCount,diversityTh=2,pAlg=0.5,countTh=4,packetIndexAgg=4,packetIndexCosw=4,NumOfToRs=10,cacheToR=300,cacheAgg=10#2a300#2a0.5,ThInAgg=3,thInCons=2.5e9,rate=1600000000000,S=PaperResult#2fPushCount_p_=_0.5_th_in_Agg_=_3_countTh_=_4_App_A=(Hadoop_2.5e9_t_4)_App_B_(avg(Hadoop)_2.5e9_d_4)#2fend_time_=_3.12s_CToR_=_300#2f-
attr measurement "$endSim=3.12s, $hosts=15000, $SizeDist=i-hadoop, $p=0.5, $scale=1, $alg=PushCount, $diversityTh=2, $pAlg=0.5, $countTh=4, $packetIndexAgg=4, $packetIndexCosw=4, $NumOfToRs=10, $cacheToR=300, $cacheAgg=10*300*0.5, $ThInAgg=3, $thInCons=2.5e9, $rate=1600000000000, $S=PaperResult/PushCount p = 0.5 th in Agg = 3 countTh = 4 App A=(Hadoop 2.5e9 t 4) App B (avg(Hadoop) 2.5e9 d 4)/end time = 3.12s CToR = 300/"
attr network Network
attr processid 10472
attr repetition 0
attr replication #0
attr resultdir results
attr runnumber 9
attr seedset 9
itervar NumOfToRs 10
itervar S "PaperResult/PushCount p = 0.5 th in Agg = 3 countTh = 4 App A=(Hadoop 2.5e9 t 4) App B (avg(Hadoop) 2.5e9 d 4)/end time = 3.12s CToR = 300/"
itervar SizeDist i-hadoop
itervar ThInAgg 3
itervar alg PushCount
itervar cacheAgg 10*300*0.5
itervar cacheToR 300
itervar countTh 4
itervar diversityTh 2
itervar endSim 3.12s
itervar hosts 15000
itervar p 0.5
itervar pAlg 0.5
itervar packetIndexAgg 4
itervar packetIndexCosw 4
itervar rate 1600000000000
itervar scale 1
itervar thInCons 2.5e9
param Network.estimate_rate_interval 0.5e-3
param Network.policy_size "\"10e6\""
param Network.rack[*].number_of_hosts 15000
param Network.size_distribution "\"size_distribution/i-hadoop.csv\""
param Network.prob_of_app_A 0.5
param Network.scale 1
param Network.algorithm "\"PushCount\""
param Network.diversity_th 2
param Network.p_in_algorithm 0.5
param Network.count_th 4
param Network.packet_index_for_decision_Agg 4
param Network.packet_index_for_decision_cosw 4
param Network.cache_size "\"2222\""
param Network.NumOfToRs 10
param Network.NumOfAggregation 1
param Network.tor[*].max_cache_size 300
param Network.agg[*].max_cache_size 10*300*0.5
param Network.push_threshold_in_aggregation 3
param Network.push_threshold_in_controller_switch 2.5e9
param Network.total_rate_in_tor "\"1600000000000\""
param Network.output_file "\"PaperResult/PushCount p = 0.5 th in Agg = 3 countTh = 4 App A=(Hadoop 2.5e9 t 4) App B (avg(Hadoop) 2.5e9 d 4)/end time = 3.12s CToR = 300/\""
param Network.run_elephant false
param Network.bandwidth_elephant_threshold "\"2.5e9\""
param Network.run_push true
param Network.record_traffic false
param Network.create_offline_traffic false
param Network.linedelay 0.2
param Network.tor[*].threshold 2
param Network.agg[*].threshold 2
param Network.tor[*].Type 1001
param Network.agg[*].Type 1002
param Network.rack[*].host[*].flow_appearance "\"\""
param Network.rack[*].host[*].flow_size "\"\""
param Network.propagation_time "\"\""
param Network.processing_time_on_data_packet_in_sw "\"\""
param Network.processing_time_on_data_packet_in_controller "\"\""
param Network.insertion_delay "\"\""
param Network.eviction_delay "\"\""
param Network.elephant_table_size "\"\""
param Network.flush_elephant_time "\"\""
param Network.check_for_elephant_time "\"\""
param Network.elephant_sample_rx "\"\""
param Network.already_requested_threshold "\"\""
param Network.cache_percentage "\"\""
param Network.eviction_sample_size "\"\""
param Network.inter_arrival_time_between_packets "\"\""
param Network.inter_arrival_time_between_flowlets "\"\""
param Network.inter_arrival_time_between_flows "\"\""
param Network.large_flow "\"\""
param Network.last_flow_appearance "\"0\""
param Network.rack[*].last_flow_appearance 0

scalar Network.controller "prob_of_app_A: " 0.5
scalar Network.tor[0] "max_cache_size: " 300
scalar Network.tor[0] "push threshold: " 0
scalar Network.tor[1] "max_cache_size: " 300
scalar Network.tor[1] "push threshold: " 0
scalar Network.tor[2] "max_cache_size: " 300
scalar Network.tor[2] "push threshold: " 0
scalar Network.tor[3] "max_cache_size: " 300
scalar Network.tor[3] "push threshold: " 0
scalar Network.tor[4] "max_cache_size: " 300
scalar Network.tor[4] "push threshold: " 0
scalar Network.tor[5] "max_cache_size: " 300
scalar Network.tor[5] "push threshold: " 0
scalar Network.tor[6] "max_cache_size: " 300
scalar Network.tor[6] "push threshold: " 0
scalar Network.tor[7] "max_cache_size: " 300
scalar Network.tor[7] "push threshold: " 0
scalar Network.tor[8] "max_cache_size: " 300
scalar Network.tor[8] "push threshold: " 0
scalar Network.tor[9] "max_cache_size: " 300
scalar Network.tor[9] "push threshold: " 0
scalar Network.agg[0] "max_cache_size: " 1500
scalar Network.agg[0] "push threshold: " 3
scalar Network.dest "run_elephant: " 0
scalar Network.dest "run_push: " 1
scalar Network.dest "cache_size: " 2222
scalar Network.dest "scale: " 1
scalar Network.dest "total_rate_in_tor: " 1600000000000
scalar Network.controller "INTERVAL: " 0.00128
scalar Network.controller "insertion_rate: " 15282200
statistic Network.controller Total_bandwidth_hist
field count 93
field mean 736422379032.26
field stddev 16330096941.787
field min 692990625000
field max 805040625000
field sum 68487281250000
field sqrsum 5.046010042166e+025
bin	-inf	0
bin	690000000000	0
bin	692000000000	1
bin	694000000000	1
bin	696000000000	0
bin	698000000000	0
bin	700000000000	1
bin	702000000000	0
bin	704000000000	0
bin	706000000000	2
bin	708000000000	1
bin	710000000000	0
bin	712000000000	0
bin	714000000000	3
bin	716000000000	2
bin	718000000000	3
bin	720000000000	1
bin	722000000000	2
bin	724000000000	3
bin	726000000000	3
bin	728000000000	7
bin	730000000000	4
bin	732000000000	7
bin	734000000000	7
bin	736000000000	3
bin	738000000000	5
bin	740000000000	1
bin	742000000000	5
bin	744000000000	3
bin	746000000000	4
bin	748000000000	3
bin	750000000000	6
bin	752000000000	7
bin	754000000000	1
bin	756000000000	3
bin	758000000000	2
bin	760000000000	1
bin	762000000000	0
bin	764000000000	0
bin	766000000000	0
bin	768000000000	0
bin	770000000000	0
bin	772000000000	0
bin	774000000000	0
bin	776000000000	0
bin	778000000000	0
bin	780000000000	0
bin	782000000000	0
bin	784000000000	0
bin	786000000000	0
bin	788000000000	0
bin	790000000000	0
bin	792000000000	0
bin	794000000000	0
bin	796000000000	0
bin	798000000000	0
bin	800000000000	0
bin	802000000000	0
bin	804000000000	1
bin	806000000000	0
bin	808000000000	0
bin	810000000000	0
bin	812000000000	0
bin	814000000000	0
bin	816000000000	0
bin	818000000000	0
bin	820000000000	0
bin	822000000000	0
bin	824000000000	0
bin	826000000000	0
bin	828000000000	0
statistic Network.rack[0].hub "bandwidth hist"
field count 93
field mean 336830040322.58
field stddev 22731341792.241
field min 288806250000
field max 415584375000
field sum 31325193750000
field sqrsum 1.0598803952695e+025
bin	-inf	0
bin	256000000000	0
bin	258000000000	0
bin	260000000000	0
bin	262000000000	0
bin	264000000000	0
bin	266000000000	0
bin	268000000000	0
bin	270000000000	0
bin	272000000000	0
bin	274000000000	0
bin	276000000000	0
bin	278000000000	0
bin	280000000000	0
bin	282000000000	0
bin	284000000000	0
bin	286000000000	0
bin	288000000000	1
bin	290000000000	0
bin	292000000000	1
bin	294000000000	1
bin	296000000000	0
bin	298000000000	0
bin	300000000000	0
bin	302000000000	1
bin	304000000000	3
bin	306000000000	0
bin	308000000000	1
bin	310000000000	3
bin	312000000000	2
bin	314000000000	0
bin	316000000000	0
bin	318000000000	2
bin	320000000000	6
bin	322000000000	3
bin	324000000000	3
bin	326000000000	4
bin	328000000000	7
bin	330000000000	5
bin	332000000000	3
bin	334000000000	4
bin	336000000000	5
bin	338000000000	3
bin	340000000000	5
bin	342000000000	3
bin	344000000000	3
bin	346000000000	4
bin	348000000000	3
bin	350000000000	2
bin	352000000000	0
bin	354000000000	1
bin	356000000000	2
bin	358000000000	1
bin	360000000000	0
bin	362000000000	1
bin	364000000000	0
bin	366000000000	1
bin	368000000000	0
bin	370000000000	0
bin	372000000000	1
bin	374000000000	1
bin	376000000000	1
bin	378000000000	0
bin	380000000000	0
bin	382000000000	0
bin	384000000000	1
bin	386000000000	1
bin	388000000000	1
bin	390000000000	1
bin	392000000000	0
bin	394000000000	0
bin	396000000000	1
bin	398000000000	0
bin	400000000000	0
bin	402000000000	0
bin	404000000000	0
bin	406000000000	0
bin	408000000000	0
bin	410000000000	0
bin	412000000000	0
bin	414000000000	1
bin	416000000000	0
bin	418000000000	0
bin	420000000000	0
bin	422000000000	0
bin	424000000000	0
bin	426000000000	0
bin	428000000000	0
bin	430000000000	0
bin	432000000000	0
bin	434000000000	0
bin	436000000000	0
bin	438000000000	0
bin	440000000000	0
bin	442000000000	0
bin	444000000000	0
bin	446000000000	0
bin	448000000000	0
statistic Network.rack[1].hub "bandwidth hist"
field count 93
field mean 330370665322.58
field stddev 21419776540.102
field min 295312500000
field max 397246875000
field sum 30724471875000
field sqrsum 1.0192674443115e+025
bin	-inf	0
bin	268000000000	0
bin	270000000000	0
bin	272000000000	0
bin	274000000000	0
bin	276000000000	0
bin	278000000000	0
bin	280000000000	0
bin	282000000000	0
bin	284000000000	0
bin	286000000000	0
bin	288000000000	0
bin	290000000000	0
bin	292000000000	0
bin	294000000000	1
bin	296000000000	1
bin	298000000000	3
bin	300000000000	1
bin	302000000000	0
bin	304000000000	3
bin	306000000000	4
bin	308000000000	2
bin	310000000000	2
bin	312000000000	5
bin	314000000000	4
bin	316000000000	1
bin	318000000000	6
bin	320000000000	1
bin	322000000000	2
bin	324000000000	3
bin	326000000000	2
bin	328000000000	3
bin	330000000000	7
bin	332000000000	4
bin	334000000000	4
bin	336000000000	8
bin	338000000000	6
bin	340000000000	1
bin	342000000000	2
bin	344000000000	3
bin	346000000000	3
bin	348000000000	1
bin	350000000000	0
bin	352000000000	1
bin	354000000000	1
bin	356000000000	2
bin	358000000000	0
bin	360000000000	1
bin	362000000000	0
bin	364000000000	0
bin	366000000000	0
bin	368000000000	0
bin	370000000000	0
bin	372000000000	0
bin	374000000000	0
bin	376000000000	0
bin	378000000000	0
bin	380000000000	0
bin	382000000000	0
bin	384000000000	0
bin	386000000000	0
bin	388000000000	1
bin	390000000000	1
bin	392000000000	1
bin	394000000000	0
bin	396000000000	2
bin	398000000000	0
bin	400000000000	0
bin	402000000000	0
bin	404000000000	0
bin	406000000000	0
bin	408000000000	0
bin	410000000000	0
bin	412000000000	0
bin	414000000000	0
bin	416000000000	0
bin	418000000000	0
bin	420000000000	0
bin	422000000000	0
bin	424000000000	0
statistic Network.rack[2].hub "bandwidth hist"
field count 93
field mean 345490826612.9
field stddev 13113086934.695
field min 322115625000
field max 388584375000
field sum 32130646875000
field sqrsum 1.1116663428955e+025
bin	-inf	0
bin	304000000000	0
bin	306000000000	0
bin	308000000000	0
bin	310000000000	0
bin	312000000000	0
bin	314000000000	0
bin	316000000000	0
bin	318000000000	0
bin	320000000000	0
bin	322000000000	2
bin	324000000000	0
bin	326000000000	3
bin	328000000000	3
bin	330000000000	3
bin	332000000000	6
bin	334000000000	0
bin	336000000000	10
bin	338000000000	9
bin	340000000000	6
bin	342000000000	9
bin	344000000000	5
bin	346000000000	7
bin	348000000000	2
bin	350000000000	2
bin	352000000000	5
bin	354000000000	5
bin	356000000000	2
bin	358000000000	2
bin	360000000000	1
bin	362000000000	3
bin	364000000000	1
bin	366000000000	0
bin	368000000000	2
bin	370000000000	1
bin	372000000000	1
bin	374000000000	0
bin	376000000000	0
bin	378000000000	1
bin	380000000000	0
bin	382000000000	0
bin	384000000000	1
bin	386000000000	0
bin	388000000000	1
bin	390000000000	0
bin	392000000000	0
bin	394000000000	0
bin	396000000000	0
bin	398000000000	0
bin	400000000000	0
bin	402000000000	0
bin	404000000000	0
bin	406000000000	0
statistic Network.rack[3].hub "bandwidth hist"
field count 93
field mean 327940120967.74
field stddev 19731796409.572
field min 291412500000
field max 384768750000
field sum 30498431250000
field sqrsum 1.003747886209e+025
bin	-inf	0
bin	284000000000	0
bin	286000000000	0
bin	288000000000	0
bin	290000000000	2
bin	292000000000	0
bin	294000000000	0
bin	296000000000	2
bin	298000000000	1
bin	300000000000	1
bin	302000000000	2
bin	304000000000	1
bin	306000000000	2
bin	308000000000	5
bin	310000000000	6
bin	312000000000	5
bin	314000000000	5
bin	316000000000	1
bin	318000000000	3
bin	320000000000	2
bin	322000000000	5
bin	324000000000	2
bin	326000000000	3
bin	328000000000	7
bin	330000000000	5
bin	332000000000	4
bin	334000000000	3
bin	336000000000	1
bin	338000000000	2
bin	340000000000	3
bin	342000000000	1
bin	344000000000	2
bin	346000000000	1
bin	348000000000	1
bin	350000000000	2
bin	352000000000	2
bin	354000000000	1
bin	356000000000	4
bin	358000000000	1
bin	360000000000	0
bin	362000000000	0
bin	364000000000	0
bin	366000000000	2
bin	368000000000	0
bin	370000000000	0
bin	372000000000	0
bin	374000000000	0
bin	376000000000	1
bin	378000000000	1
bin	380000000000	0
bin	382000000000	0
bin	384000000000	1
bin	386000000000	0
bin	388000000000	0
bin	390000000000	0
bin	392000000000	0
bin	394000000000	0
bin	396000000000	0
statistic Network.rack[4].hub "bandwidth hist"
field count 93
field mean 324341330645.16
field stddev 21529648706.434
field min 286706250000
field max 377287500000
field sum 30163743750000
field sqrsum 9.8259931562695e+024
bin	-inf	0
bin	264000000000	0
bin	266000000000	0
bin	268000000000	0
bin	270000000000	0
bin	272000000000	0
bin	274000000000	0
bin	276000000000	0
bin	278000000000	0
bin	280000000000	0
bin	282000000000	0
bin	284000000000	0
bin	286000000000	1
bin	288000000000	1
bin	290000000000	2
bin	292000000000	1
bin	294000000000	1
bin	296000000000	6
bin	298000000000	3
bin	300000000000	3
bin	302000000000	2
bin	304000000000	2
bin	306000000000	6
bin	308000000000	2
bin	310000000000	2
bin	312000000000	2
bin	314000000000	0
bin	316000000000	1
bin	318000000000	6
bin	320000000000	3
bin	322000000000	3
bin	324000000000	0
bin	326000000000	3
bin	328000000000	6
bin	330000000000	5
bin	332000000000	2
bin	334000000000	2
bin	336000000000	5
bin	338000000000	3
bin	340000000000	3
bin	342000000000	2
bin	344000000000	2
bin	346000000000	1
bin	348000000000	2
bin	350000000000	1
bin	352000000000	0
bin	354000000000	0
bin	356000000000	1
bin	358000000000	0
bin	360000000000	0
bin	362000000000	4
bin	364000000000	0
bin	366000000000	1
bin	368000000000	1
bin	370000000000	0
bin	372000000000	0
bin	374000000000	1
bin	376000000000	1
bin	378000000000	0
bin	380000000000	0
bin	382000000000	0
bin	384000000000	0
bin	386000000000	0
bin	388000000000	0
bin	390000000000	0
bin	392000000000	0
bin	394000000000	0
bin	396000000000	0
bin	398000000000	0
bin	400000000000	0
statistic Network.rack[5].hub "bandwidth hist"
field count 93
field mean 314837600806.45
field stddev 20497532858.172
field min 276900000000
field max 363918750000
field sum 29279896875000
field sqrsum 9.2570661784863e+024
bin	-inf	0
bin	254000000000	0
bin	256000000000	0
bin	258000000000	0
bin	260000000000	0
bin	262000000000	0
bin	264000000000	0
bin	266000000000	0
bin	268000000000	0
bin	270000000000	0
bin	272000000000	0
bin	274000000000	0
bin	276000000000	2
bin	278000000000	0
bin	280000000000	0
bin	282000000000	1
bin	284000000000	1
bin	286000000000	2
bin	288000000000	1
bin	290000000000	3
bin	292000000000	4
bin	294000000000	3
bin	296000000000	3
bin	298000000000	7
bin	300000000000	6
bin	302000000000	2
bin	304000000000	4
bin	306000000000	3
bin	308000000000	3
bin	310000000000	3
bin	312000000000	4
bin	314000000000	1
bin	316000000000	3
bin	318000000000	2
bin	320000000000	2
bin	322000000000	0
bin	324000000000	3
bin	326000000000	3
bin	328000000000	1
bin	330000000000	3
bin	332000000000	3
bin	334000000000	4
bin	336000000000	3
bin	338000000000	1
bin	340000000000	1
bin	342000000000	0
bin	344000000000	2
bin	346000000000	1
bin	348000000000	3
bin	350000000000	2
bin	352000000000	1
bin	354000000000	0
bin	356000000000	1
bin	358000000000	0
bin	360000000000	0
bin	362000000000	1
bin	364000000000	0
bin	366000000000	0
bin	368000000000	0
bin	370000000000	0
bin	372000000000	0
bin	374000000000	0
bin	376000000000	0
bin	378000000000	0
bin	380000000000	0
bin	382000000000	0
bin	384000000000	0
bin	386000000000	0
statistic Network.rack[6].hub "bandwidth hist"
field count 93
field mean 311742137096.77
field stddev 24696219384.169
field min 282900000000
field max 396225000000
field sum 28992018750000
field sqrsum 9.0941449830469e+024
bin	-inf	0
bin	254000000000	0
bin	256000000000	0
bin	258000000000	0
bin	260000000000	0
bin	262000000000	0
bin	264000000000	0
bin	266000000000	0
bin	268000000000	0
bin	270000000000	0
bin	272000000000	0
bin	274000000000	0
bin	276000000000	0
bin	278000000000	0
bin	280000000000	0
bin	282000000000	2
bin	284000000000	1
bin	286000000000	0
bin	288000000000	3
bin	290000000000	2
bin	292000000000	4
bin	294000000000	5
bin	296000000000	7
bin	298000000000	10
bin	300000000000	4
bin	302000000000	7
bin	304000000000	7
bin	306000000000	6
bin	308000000000	6
bin	310000000000	3
bin	312000000000	2
bin	314000000000	2
bin	316000000000	2
bin	318000000000	0
bin	320000000000	3
bin	322000000000	0
bin	324000000000	1
bin	326000000000	1
bin	328000000000	1
bin	330000000000	1
bin	332000000000	2
bin	334000000000	1
bin	336000000000	0
bin	338000000000	1
bin	340000000000	0
bin	342000000000	0
bin	344000000000	1
bin	346000000000	1
bin	348000000000	0
bin	350000000000	0
bin	352000000000	0
bin	354000000000	0
bin	356000000000	0
bin	358000000000	0
bin	360000000000	0
bin	362000000000	0
bin	364000000000	0
bin	366000000000	0
bin	368000000000	0
bin	370000000000	0
bin	372000000000	0
bin	374000000000	0
bin	376000000000	1
bin	378000000000	0
bin	380000000000	2
bin	382000000000	0
bin	384000000000	1
bin	386000000000	1
bin	388000000000	1
bin	390000000000	0
bin	392000000000	0
bin	394000000000	0
bin	396000000000	1
bin	398000000000	0
bin	400000000000	0
bin	402000000000	0
bin	404000000000	0
bin	406000000000	0
bin	408000000000	0
bin	410000000000	0
bin	412000000000	0
bin	414000000000	0
bin	416000000000	0
bin	418000000000	0
bin	420000000000	0
bin	422000000000	0
bin	424000000000	0
bin	426000000000	0
statistic Network.rack[7].hub "bandwidth hist"
field count 93
field mean 306998487903.23
field stddev 17934639295.092
field min 280771875000
field max 355959375000
field sum 28550859375000
field sqrsum 8.794662574834e+024
bin	-inf	0
bin	260000000000	0
bin	262000000000	0
bin	264000000000	0
bin	266000000000	0
bin	268000000000	0
bin	270000000000	0
bin	272000000000	0
bin	274000000000	0
bin	276000000000	0
bin	278000000000	0
bin	280000000000	1
bin	282000000000	2
bin	284000000000	0
bin	286000000000	3
bin	288000000000	5
bin	290000000000	6
bin	292000000000	6
bin	294000000000	7
bin	296000000000	6
bin	298000000000	6
bin	300000000000	4
bin	302000000000	6
bin	304000000000	2
bin	306000000000	2
bin	308000000000	6
bin	310000000000	4
bin	312000000000	3
bin	314000000000	3
bin	316000000000	3
bin	318000000000	0
bin	320000000000	1
bin	322000000000	2
bin	324000000000	2
bin	326000000000	0
bin	328000000000	0
bin	330000000000	3
bin	332000000000	0
bin	334000000000	1
bin	336000000000	0
bin	338000000000	2
bin	340000000000	0
bin	342000000000	1
bin	344000000000	1
bin	346000000000	0
bin	348000000000	1
bin	350000000000	1
bin	352000000000	0
bin	354000000000	3
bin	356000000000	0
bin	358000000000	0
bin	360000000000	0
bin	362000000000	0
bin	364000000000	0
bin	366000000000	0
bin	368000000000	0
bin	370000000000	0
bin	372000000000	0
bin	374000000000	0
bin	376000000000	0
statistic Network.rack[8].hub "bandwidth hist"
field count 93
field mean 333790725806.45
field stddev 16034199736.646
field min 305146875000
field max 381356250000
field sum 31042537500000
field sqrsum 1.0385363914629e+025
bin	-inf	0
bin	286000000000	0
bin	288000000000	0
bin	290000000000	0
bin	292000000000	0
bin	294000000000	0
bin	296000000000	0
bin	298000000000	0
bin	300000000000	0
bin	302000000000	0
bin	304000000000	1
bin	306000000000	0
bin	308000000000	2
bin	310000000000	0
bin	312000000000	3
bin	314000000000	5
bin	316000000000	7
bin	318000000000	4
bin	320000000000	5
bin	322000000000	1
bin	324000000000	5
bin	326000000000	4
bin	328000000000	5
bin	330000000000	6
bin	332000000000	4
bin	334000000000	4
bin	336000000000	3
bin	338000000000	6
bin	340000000000	0
bin	342000000000	3
bin	344000000000	5
bin	346000000000	2
bin	348000000000	3
bin	350000000000	0
bin	352000000000	2
bin	354000000000	2
bin	356000000000	3
bin	358000000000	3
bin	360000000000	2
bin	362000000000	0
bin	364000000000	0
bin	366000000000	0
bin	368000000000	1
bin	370000000000	0
bin	372000000000	0
bin	374000000000	1
bin	376000000000	0
bin	378000000000	0
bin	380000000000	1
bin	382000000000	0
bin	384000000000	0
bin	386000000000	0
bin	388000000000	0
bin	390000000000	0
bin	392000000000	0
bin	394000000000	0
bin	396000000000	0
bin	398000000000	0
bin	400000000000	0
bin	402000000000	0
statistic Network.rack[9].hub "bandwidth hist"
field count 93
field mean 319311189516.13
field stddev 12709908414.011
field min 292875000000
field max 348562500000
field sum 29695940625000
field sqrsum 9.4971079677832e+024
bin	-inf	0
bin	278000000000	0
bin	279000000000	0
bin	280000000000	0
bin	281000000000	0
bin	282000000000	0
bin	283000000000	0
bin	284000000000	0
bin	285000000000	0
bin	286000000000	0
bin	287000000000	0
bin	288000000000	0
bin	289000000000	0
bin	290000000000	0
bin	291000000000	0
bin	292000000000	1
bin	293000000000	0
bin	294000000000	0
bin	295000000000	0
bin	296000000000	0
bin	297000000000	1
bin	298000000000	1
bin	299000000000	1
bin	300000000000	0
bin	301000000000	0
bin	302000000000	0
bin	303000000000	2
bin	304000000000	1
bin	305000000000	1
bin	306000000000	3
bin	307000000000	6
bin	308000000000	2
bin	309000000000	6
bin	310000000000	3
bin	311000000000	3
bin	312000000000	2
bin	313000000000	4
bin	314000000000	3
bin	315000000000	2
bin	316000000000	6
bin	317000000000	2
bin	318000000000	4
bin	319000000000	1
bin	320000000000	4
bin	321000000000	1
bin	322000000000	1
bin	323000000000	3
bin	324000000000	0
bin	325000000000	4
bin	326000000000	3
bin	327000000000	3
bin	328000000000	1
bin	329000000000	1
bin	330000000000	0
bin	331000000000	0
bin	332000000000	1
bin	333000000000	2
bin	334000000000	1
bin	335000000000	0
bin	336000000000	0
bin	337000000000	1
bin	338000000000	1
bin	339000000000	2
bin	340000000000	1
bin	341000000000	0
bin	342000000000	1
bin	343000000000	2
bin	344000000000	0
bin	345000000000	3
bin	346000000000	1
bin	347000000000	0
bin	348000000000	1
bin	349000000000	0
bin	350000000000	0
bin	351000000000	0
bin	352000000000	0
bin	353000000000	0
bin	354000000000	0
bin	355000000000	0
bin	356000000000	0
bin	357000000000	0
bin	358000000000	0
bin	359000000000	0
bin	360000000000	0
bin	361000000000	0
bin	362000000000	0
bin	363000000000	0
scalar Network.tor[0] "Bandwidth: " 337129900000
statistic Network.tor[0] "flow count"
field count 93
field mean 811.59139784946
field stddev 16.499167672776
field min 769
field max 843
field sum 75478
field sqrsum 61282340
bin	-inf	0
bin	750	0
bin	752	0
bin	754	0
bin	756	0
bin	758	0
bin	760	0
bin	762	0
bin	764	0
bin	766	0
bin	768	1
bin	770	1
bin	772	1
bin	774	0
bin	776	0
bin	778	1
bin	780	0
bin	782	2
bin	784	2
bin	786	0
bin	788	2
bin	790	3
bin	792	1
bin	794	2
bin	796	2
bin	798	2
bin	800	4
bin	802	3
bin	804	4
bin	806	2
bin	808	3
bin	810	6
bin	812	4
bin	814	6
bin	816	4
bin	818	5
bin	820	5
bin	822	7
bin	824	2
bin	826	2
bin	828	5
bin	830	2
bin	832	1
bin	834	3
bin	836	1
bin	838	1
bin	840	2
bin	842	1
bin	844	0
bin	846	0
bin	848	0
bin	850	0
bin	852	0
bin	854	0
bin	856	0
bin	858	0
bin	860	0
bin	862	0
statistic Network.tor[0] cache_occupancy
field count 93
field mean 300
field stddev 0
field min 300
field max 300
field sum 27900
field sqrsum 8370000
bin	-inf	0
bin	299	0
bin	300	93
bin	301	0
statistic Network.tor[0] activity_time_of_a_rule_A
field count 45223
field mean 0.0002489355576422
field stddev 0.0004542724550475
field min 0
field max 0.018039961152
field sum 11.257612723253
field sqrsum 0.012134588643531
bin	-inf	0
bin	0	31310
bin	0.00024	8022
bin	0.00048	2873
bin	0.00072	1225
bin	0.00096	642
bin	0.0012	336
bin	0.00144	206
bin	0.00168	140
bin	0.00192	106
bin	0.00216	79
bin	0.0024	39
bin	0.00264	39
bin	0.00288	34
bin	0.00312	28
bin	0.00336	24
bin	0.0036	14
bin	0.00384	21
bin	0.00408	13
bin	0.00432	13
bin	0.00456	8
bin	0.0048	4
bin	0.00504	4
bin	0.00528	7
bin	0.00552	3
bin	0.00576	3
bin	0.006	3
bin	0.00624	7
bin	0.00648	1
bin	0.00672	0
bin	0.00696	1
bin	0.0072	2
bin	0.00744	0
bin	0.00768	1
bin	0.00792	2
bin	0.00816	1
bin	0.0084	0
bin	0.00864	2
bin	0.00888	0
bin	0.00912	1
bin	0.00936	0
bin	0.0096	3
bin	0.00984	0
bin	0.01008	0
bin	0.01032	0
bin	0.01056	2
bin	0.0108	0
bin	0.01104	0
bin	0.01128	1
bin	0.01152	0
bin	0.01176	0
bin	0.012	0
bin	0.01224	0
bin	0.01248	0
bin	0.01272	0
bin	0.01296	0
bin	0.0132	0
bin	0.01344	0
bin	0.01368	0
bin	0.01392	0
bin	0.01416	0
bin	0.0144	0
bin	0.01464	0
bin	0.01488	0
bin	0.01512	0
bin	0.01536	0
bin	0.0156	0
bin	0.01584	0
bin	0.01608	0
bin	0.01632	0
bin	0.01656	1
bin	0.0168	0
bin	0.01704	0
bin	0.01728	0
bin	0.01752	1
bin	0.01776	0
bin	0.018	1
bin	0.01824	0
statistic Network.tor[0] activity_time_of_a_rule_B
field count 130658
field mean 8.1034408031441e-005
field stddev 0.00014313376415352
field min 0
field max 0.003697410751
field sum 10.587793684572
field sqrsum 0.0035347814101939
bin	-inf	0
bin	0	89482
bin	8e-005	21364
bin	0.00016	9291
bin	0.00024	4468
bin	0.00032	2249
bin	0.0004	1247
bin	0.00048	726
bin	0.00056	540
bin	0.00064	292
bin	0.00072	259
bin	0.0008	135
bin	0.00088	102
bin	0.00096	94
bin	0.00104	67
bin	0.00112	61
bin	0.0012	40
bin	0.00128	39
bin	0.00136	28
bin	0.00144	24
bin	0.00152	19
bin	0.0016	23
bin	0.00168	14
bin	0.00176	17
bin	0.00184	13
bin	0.00192	13
bin	0.002	13
bin	0.00208	7
bin	0.00216	4
bin	0.00224	4
bin	0.00232	4
bin	0.0024	3
bin	0.00248	3
bin	0.00256	3
bin	0.00264	3
bin	0.00272	1
bin	0.0028	2
bin	0.00288	0
bin	0.00296	2
bin	0.00304	1
bin	0.00312	0
bin	0.0032	0
bin	0.00328	0
bin	0.00336	0
bin	0.00344	0
bin	0.00352	0
bin	0.0036	0
bin	0.00368	1
bin	0.00376	0
scalar Network.tor[0] "cache_content_by_app: " 0.47131147540984
scalar Network.tor[1] "Bandwidth: " 330427800000
statistic Network.tor[1] "flow count"
field count 93
field mean 814.58064516129
field stddev 29.578312626655
field min 741
field max 875
field sum 75756
field sqrsum 61789860
bin	-inf	0
bin	706	0
bin	708	0
bin	710	0
bin	712	0
bin	714	0
bin	716	0
bin	718	0
bin	720	0
bin	722	0
bin	724	0
bin	726	0
bin	728	0
bin	730	0
bin	732	0
bin	734	0
bin	736	0
bin	738	0
bin	740	1
bin	742	0
bin	744	0
bin	746	0
bin	748	0
bin	750	0
bin	752	0
bin	754	0
bin	756	0
bin	758	1
bin	760	0
bin	762	1
bin	764	1
bin	766	4
bin	768	1
bin	770	1
bin	772	1
bin	774	1
bin	776	1
bin	778	0
bin	780	3
bin	782	1
bin	784	1
bin	786	1
bin	788	1
bin	790	2
bin	792	2
bin	794	3
bin	796	2
bin	798	5
bin	800	1
bin	802	1
bin	804	0
bin	806	3
bin	808	0
bin	810	1
bin	812	0
bin	814	2
bin	816	3
bin	818	1
bin	820	2
bin	822	4
bin	824	1
bin	826	3
bin	828	2
bin	830	2
bin	832	1
bin	834	4
bin	836	3
bin	838	2
bin	840	2
bin	842	2
bin	844	6
bin	846	4
bin	848	2
bin	850	1
bin	852	1
bin	854	1
bin	856	0
bin	858	0
bin	860	2
bin	862	0
bin	864	0
bin	866	0
bin	868	1
bin	870	0
bin	872	0
bin	874	1
bin	876	0
bin	878	0
bin	880	0
bin	882	0
bin	884	0
bin	886	0
bin	888	0
bin	890	0
bin	892	0
bin	894	0
bin	896	0
bin	898	0
bin	900	0
bin	902	0
bin	904	0
bin	906	0
bin	908	0
bin	910	0
statistic Network.tor[1] cache_occupancy
field count 93
field mean 300
field stddev 0
field min 300
field max 300
field sum 27900
field sqrsum 8370000
bin	-inf	0
bin	299	0
bin	300	93
bin	301	0
statistic Network.tor[1] activity_time_of_a_rule_A
field count 44417
field mean 0.00024831235190722
field stddev 0.00042992504583566
field min 0
field max 0.016133399843
field sum 11.029289734663
field sqrsum 0.010948364442235
bin	-inf	0
bin	0	34241
bin	0.00032	6583
bin	0.00064	1860
bin	0.00096	730
bin	0.00128	344
bin	0.0016	202
bin	0.00192	147
bin	0.00224	82
bin	0.00256	66
bin	0.00288	44
bin	0.0032	19
bin	0.00352	13
bin	0.00384	14
bin	0.00416	13
bin	0.00448	5
bin	0.0048	13
bin	0.00512	5
bin	0.00544	7
bin	0.00576	2
bin	0.00608	1
bin	0.0064	4
bin	0.00672	5
bin	0.00704	5
bin	0.00736	1
bin	0.00768	3
bin	0.008	2
bin	0.00832	0
bin	0.00864	1
bin	0.00896	1
bin	0.00928	0
bin	0.0096	0
bin	0.00992	0
bin	0.01024	1
bin	0.01056	0
bin	0.01088	0
bin	0.0112	1
bin	0.01152	0
bin	0.01184	0
bin	0.01216	0
bin	0.01248	1
bin	0.0128	0
bin	0.01312	0
bin	0.01344	0
bin	0.01376	0
bin	0.01408	0
bin	0.0144	0
bin	0.01472	0
bin	0.01504	0
bin	0.01536	0
bin	0.01568	0
bin	0.016	1
bin	0.01632	0
statistic Network.tor[1] activity_time_of_a_rule_B
field count 134453
field mean 8.0017675809109e-005
field stddev 0.00014150622320804
field min 0
field max 0.003330178019
field sum 10.758616565562
field sqrsum 0.0035531478472478
bin	-inf	0
bin	0	71233
bin	4e-005	21138
bin	8e-005	13375
bin	0.00012	8597
bin	0.00016	5697
bin	0.0002	3940
bin	0.00024	2560
bin	0.00028	1808
bin	0.00032	1373
bin	0.00036	941
bin	0.0004	727
bin	0.00044	515
bin	0.00048	435
bin	0.00052	326
bin	0.00056	285
bin	0.0006	213
bin	0.00064	196
bin	0.00068	166
bin	0.00072	111
bin	0.00076	102
bin	0.0008	76
bin	0.00084	76
bin	0.00088	61
bin	0.00092	47
bin	0.00096	35
bin	0.001	35
bin	0.00104	38
bin	0.00108	25
bin	0.00112	21
bin	0.00116	22
bin	0.0012	16
bin	0.00124	20
bin	0.00128	22
bin	0.00132	13
bin	0.00136	20
bin	0.0014	20
bin	0.00144	10
bin	0.00148	11
bin	0.00152	6
bin	0.00156	6
bin	0.0016	11
bin	0.00164	7
bin	0.00168	7
bin	0.00172	5
bin	0.00176	6
bin	0.0018	11
bin	0.00184	5
bin	0.00188	9
bin	0.00192	8
bin	0.00196	9
bin	0.002	4
bin	0.00204	5
bin	0.00208	6
bin	0.00212	7
bin	0.00216	3
bin	0.0022	0
bin	0.00224	3
bin	0.00228	1
bin	0.00232	3
bin	0.00236	1
bin	0.0024	0
bin	0.00244	0
bin	0.00248	2
bin	0.00252	2
bin	0.00256	2
bin	0.0026	3
bin	0.00264	1
bin	0.00268	1
bin	0.00272	2
bin	0.00276	2
bin	0.0028	3
bin	0.00284	0
bin	0.00288	2
bin	0.00292	0
bin	0.00296	0
bin	0.003	0
bin	0.00304	1
bin	0.00308	2
bin	0.00312	0
bin	0.00316	0
bin	0.0032	0
bin	0.00324	0
bin	0.00328	0
bin	0.00332	1
bin	0.00336	0
scalar Network.tor[1] "cache_content_by_app: " 0.47773279352227
scalar Network.tor[2] "Bandwidth: " 345313300000
statistic Network.tor[2] "flow count"
field count 93
field mean 832.54838709677
field stddev 13.899105483441
field min 802
field max 863
field sum 77427
field sqrsum 64479497
bin	-inf	0
bin	794	0
bin	795	0
bin	796	0
bin	797	0
bin	798	0
bin	799	0
bin	800	0
bin	801	0
bin	802	1
bin	803	0
bin	804	0
bin	805	0
bin	806	0
bin	807	1
bin	808	1
bin	809	3
bin	810	0
bin	811	0
bin	812	1
bin	813	0
bin	814	2
bin	815	2
bin	816	2
bin	817	3
bin	818	0
bin	819	4
bin	820	1
bin	821	2
bin	822	3
bin	823	1
bin	824	1
bin	825	5
bin	826	0
bin	827	3
bin	828	3
bin	829	1
bin	830	0
bin	831	2
bin	832	2
bin	833	1
bin	834	3
bin	835	2
bin	836	3
bin	837	3
bin	838	6
bin	839	3
bin	840	1
bin	841	0
bin	842	2
bin	843	4
bin	844	2
bin	845	2
bin	846	3
bin	847	2
bin	848	0
bin	849	1
bin	850	0
bin	851	1
bin	852	2
bin	853	1
bin	854	1
bin	855	2
bin	856	0
bin	857	2
bin	858	0
bin	859	0
bin	860	0
bin	861	1
bin	862	0
bin	863	1
bin	864	0
bin	865	0
bin	866	0
bin	867	0
bin	868	0
bin	869	0
bin	870	0
bin	871	0
bin	872	0
bin	873	0
bin	874	0
bin	875	0
bin	876	0
bin	877	0
statistic Network.tor[2] cache_occupancy
field count 93
field mean 300
field stddev 0
field min 300
field max 300
field sum 27900
field sqrsum 8370000
bin	-inf	0
bin	299	0
bin	300	93
bin	301	0
statistic Network.tor[2] activity_time_of_a_rule_A
field count 48817
field mean 0.0002356993585784
field stddev 0.00043158705113008
field min 0
field max 0.023666180956
field sum 11.506135587722
field sqrsum 0.01180481733178
bin	-inf	0
bin	0	43027
bin	0.00048	4122
bin	0.00096	857
bin	0.00144	335
bin	0.00192	175
bin	0.0024	98
bin	0.00288	54
bin	0.00336	36
bin	0.00384	24
bin	0.00432	23
bin	0.0048	19
bin	0.00528	17
bin	0.00576	3
bin	0.00624	11
bin	0.00672	4
bin	0.0072	3
bin	0.00768	2
bin	0.00816	0
bin	0.00864	3
bin	0.00912	0
bin	0.0096	1
bin	0.01008	0
bin	0.01056	1
bin	0.01104	1
bin	0.01152	0
bin	0.012	0
bin	0.01248	0
bin	0.01296	0
bin	0.01344	0
bin	0.01392	0
bin	0.0144	0
bin	0.01488	0
bin	0.01536	0
bin	0.01584	0
bin	0.01632	0
bin	0.0168	0
bin	0.01728	0
bin	0.01776	0
bin	0.01824	0
bin	0.01872	0
bin	0.0192	0
bin	0.01968	0
bin	0.02016	0
bin	0.02064	0
bin	0.02112	0
bin	0.0216	0
bin	0.02208	0
bin	0.02256	0
bin	0.02304	0
bin	0.02352	1
bin	0.024	0
statistic Network.tor[2] activity_time_of_a_rule_B
field count 136253
field mean 7.5078034846623e-005
field stddev 0.0001353664551968
field min 0
field max 0.003303136233
field sum 10.229607481957
field sqrsum 0.0032647109926367
bin	-inf	0
bin	0	88657
bin	6.4e-005	22699
bin	0.000128	10765
bin	0.000192	5538
bin	0.000256	3088
bin	0.00032	1782
bin	0.000384	1073
bin	0.000448	689
bin	0.000512	472
bin	0.000576	333
bin	0.00064	244
bin	0.000704	168
bin	0.000768	130
bin	0.000832	87
bin	0.000896	76
bin	0.00096	63
bin	0.001024	42
bin	0.001088	52
bin	0.001152	37
bin	0.001216	33
bin	0.00128	25
bin	0.001344	20
bin	0.001408	21
bin	0.001472	22
bin	0.001536	15
bin	0.0016	16
bin	0.001664	13
bin	0.001728	12
bin	0.001792	14
bin	0.001856	19
bin	0.00192	6
bin	0.001984	6
bin	0.002048	6
bin	0.002112	3
bin	0.002176	5
bin	0.00224	1
bin	0.002304	3
bin	0.002368	1
bin	0.002432	2
bin	0.002496	4
bin	0.00256	2
bin	0.002624	1
bin	0.002688	1
bin	0.002752	2
bin	0.002816	0
bin	0.00288	1
bin	0.002944	1
bin	0.003008	2
bin	0.003072	0
bin	0.003136	0
bin	0.0032	0
bin	0.003264	1
bin	0.003328	0
scalar Network.tor[2] "cache_content_by_app: " 0.4320987654321
scalar Network.tor[3] "Bandwidth: " 327816400000
statistic Network.tor[3] "flow count"
field count 93
field mean 815.23655913978
field stddev 21.215456757353
field min 768
field max 868
field sum 75817
field sqrsum 61850199
bin	-inf	0
bin	742	0
bin	744	0
bin	746	0
bin	748	0
bin	750	0
bin	752	0
bin	754	0
bin	756	0
bin	758	0
bin	760	0
bin	762	0
bin	764	0
bin	766	0
bin	768	1
bin	770	0
bin	772	1
bin	774	0
bin	776	0
bin	778	3
bin	780	1
bin	782	2
bin	784	1
bin	786	1
bin	788	2
bin	790	4
bin	792	1
bin	794	0
bin	796	4
bin	798	1
bin	800	4
bin	802	0
bin	804	2
bin	806	5
bin	808	4
bin	810	1
bin	812	3
bin	814	2
bin	816	6
bin	818	6
bin	820	1
bin	822	5
bin	824	3
bin	826	6
bin	828	0
bin	830	1
bin	832	2
bin	834	4
bin	836	3
bin	838	1
bin	840	3
bin	842	0
bin	844	2
bin	846	1
bin	848	1
bin	850	2
bin	852	0
bin	854	0
bin	856	1
bin	858	0
bin	860	1
bin	862	0
bin	864	0
bin	866	0
bin	868	1
bin	870	0
bin	872	0
bin	874	0
bin	876	0
bin	878	0
bin	880	0
bin	882	0
bin	884	0
bin	886	0
bin	888	0
bin	890	0
bin	892	0
bin	894	0
statistic Network.tor[3] cache_occupancy
field count 93
field mean 300
field stddev 0
field min 300
field max 300
field sum 27900
field sqrsum 8370000
bin	-inf	0
bin	299	0
bin	300	93
bin	301	0
statistic Network.tor[3] activity_time_of_a_rule_A
field count 44682
field mean 0.00024691696507925
field stddev 0.00039918011162976
field min 0
field max 0.011368211855
field sum 11.032743833671
field sqrsum 0.0098438549134152
bin	-inf	0
bin	0	24729
bin	0.00016	9425
bin	0.00032	4572
bin	0.00048	2323
bin	0.00064	1249
bin	0.0008	694
bin	0.00096	453
bin	0.00112	310
bin	0.00128	214
bin	0.00144	146
bin	0.0016	114
bin	0.00176	89
bin	0.00192	70
bin	0.00208	41
bin	0.00224	41
bin	0.0024	29
bin	0.00256	30
bin	0.00272	21
bin	0.00288	13
bin	0.00304	13
bin	0.0032	10
bin	0.00336	14
bin	0.00352	8
bin	0.00368	5
bin	0.00384	5
bin	0.004	8
bin	0.00416	3
bin	0.00432	4
bin	0.00448	2
bin	0.00464	5
bin	0.0048	2
bin	0.00496	4
bin	0.00512	2
bin	0.00528	3
bin	0.00544	3
bin	0.0056	4
bin	0.00576	2
bin	0.00592	4
bin	0.00608	3
bin	0.00624	0
bin	0.0064	0
bin	0.00656	0
bin	0.00672	1
bin	0.00688	1
bin	0.00704	1
bin	0.0072	0
bin	0.00736	2
bin	0.00752	1
bin	0.00768	0
bin	0.00784	2
bin	0.008	0
bin	0.00816	0
bin	0.00832	0
bin	0.00848	2
bin	0.00864	1
bin	0.0088	0
bin	0.00896	1
bin	0.00912	0
bin	0.00928	0
bin	0.00944	0
bin	0.0096	1
bin	0.00976	1
bin	0.00992	0
bin	0.01008	0
bin	0.01024	0
bin	0.0104	0
bin	0.01056	0
bin	0.01072	0
bin	0.01088	0
bin	0.01104	0
bin	0.0112	0
bin	0.01136	1
bin	0.01152	0
statistic Network.tor[3] activity_time_of_a_rule_B
field count 132747
field mean 8.1069116660458e-005
field stddev 0.00014525839898564
field min 0
field max 0.003371470107
field sum 10.761682029326
field sqrsum 0.0036733809845601
bin	-inf	0
bin	0	81884
bin	6e-005	22315
bin	0.00012	11678
bin	0.00018	6286
bin	0.00024	3547
bin	0.0003	2235
bin	0.00036	1328
bin	0.00042	866
bin	0.00048	590
bin	0.00054	443
bin	0.0006	305
bin	0.00066	250
bin	0.00072	164
bin	0.00078	142
bin	0.00084	113
bin	0.0009	84
bin	0.00096	71
bin	0.00102	54
bin	0.00108	36
bin	0.00114	33
bin	0.0012	36
bin	0.00126	36
bin	0.00132	31
bin	0.00138	27
bin	0.00144	19
bin	0.0015	14
bin	0.00156	18
bin	0.00162	17
bin	0.00168	11
bin	0.00174	13
bin	0.0018	11
bin	0.00186	12
bin	0.00192	9
bin	0.00198	11
bin	0.00204	7
bin	0.0021	10
bin	0.00216	8
bin	0.00222	3
bin	0.00228	0
bin	0.00234	7
bin	0.0024	3
bin	0.00246	3
bin	0.00252	1
bin	0.00258	5
bin	0.00264	3
bin	0.0027	2
bin	0.00276	0
bin	0.00282	0
bin	0.00288	0
bin	0.00294	1
bin	0.003	0
bin	0.00306	1
bin	0.00312	0
bin	0.00318	1
bin	0.00324	0
bin	0.0033	2
bin	0.00336	1
bin	0.00342	0
scalar Network.tor[3] "cache_content_by_app: " 0.45418326693227
scalar Network.tor[4] "Bandwidth: " 324227000000
statistic Network.tor[4] "flow count"
field count 93
field mean 778.86021505376
field stddev 22.482162686976
field min 729
field max 831
field sum 72434
field sqrsum 56462462
bin	-inf	0
bin	702	0
bin	704	0
bin	706	0
bin	708	0
bin	710	0
bin	712	0
bin	714	0
bin	716	0
bin	718	0
bin	720	0
bin	722	0
bin	724	0
bin	726	0
bin	728	1
bin	730	1
bin	732	1
bin	734	0
bin	736	2
bin	738	0
bin	740	1
bin	742	1
bin	744	0
bin	746	2
bin	748	0
bin	750	2
bin	752	1
bin	754	2
bin	756	1
bin	758	2
bin	760	1
bin	762	4
bin	764	3
bin	766	3
bin	768	4
bin	770	2
bin	772	4
bin	774	3
bin	776	3
bin	778	3
bin	780	4
bin	782	2
bin	784	4
bin	786	1
bin	788	3
bin	790	2
bin	792	7
bin	794	3
bin	796	2
bin	798	2
bin	800	0
bin	802	0
bin	804	5
bin	806	1
bin	808	0
bin	810	4
bin	812	1
bin	814	1
bin	816	2
bin	818	0
bin	820	0
bin	822	0
bin	824	0
bin	826	0
bin	828	1
bin	830	1
bin	832	0
bin	834	0
bin	836	0
bin	838	0
bin	840	0
bin	842	0
bin	844	0
bin	846	0
bin	848	0
bin	850	0
bin	852	0
bin	854	0
bin	856	0
bin	858	0
statistic Network.tor[4] cache_occupancy
field count 93
field mean 300
field stddev 0
field min 300
field max 300
field sum 27900
field sqrsum 8370000
bin	-inf	0
bin	299	0
bin	300	93
bin	301	0
statistic Network.tor[4] activity_time_of_a_rule_A
field count 41204
field mean 0.00027449774554157
field stddev 0.00046470723142206
field min 0
field max 0.013191434714
field sum 11.310405107295
field sqrsum 0.012002584372109
bin	-inf	0
bin	0	26960
bin	0.00024	7910
bin	0.00048	3098
bin	0.00072	1345
bin	0.00096	660
bin	0.0012	373
bin	0.00144	229
bin	0.00168	144
bin	0.00192	96
bin	0.00216	78
bin	0.0024	55
bin	0.00264	42
bin	0.00288	33
bin	0.00312	34
bin	0.00336	31
bin	0.0036	14
bin	0.00384	14
bin	0.00408	7
bin	0.00432	7
bin	0.00456	8
bin	0.0048	8
bin	0.00504	9
bin	0.00528	9
bin	0.00552	5
bin	0.00576	6
bin	0.006	4
bin	0.00624	4
bin	0.00648	3
bin	0.00672	2
bin	0.00696	2
bin	0.0072	2
bin	0.00744	0
bin	0.00768	1
bin	0.00792	4
bin	0.00816	0
bin	0.0084	1
bin	0.00864	0
bin	0.00888	0
bin	0.00912	1
bin	0.00936	0
bin	0.0096	0
bin	0.00984	0
bin	0.01008	1
bin	0.01032	1
bin	0.01056	0
bin	0.0108	0
bin	0.01104	0
bin	0.01128	0
bin	0.01152	1
bin	0.01176	0
bin	0.012	0
bin	0.01224	0
bin	0.01248	0
bin	0.01272	0
bin	0.01296	2
bin	0.0132	0
statistic Network.tor[4] activity_time_of_a_rule_B
field count 122509
field mean 8.8291867792188e-005
field stddev 0.00015588317355487
field min 0
field max 0.003935240457
field sum 10.816548431353
field sqrsum 0.0039319042257776
bin	-inf	0
bin	0	81369
bin	8e-005	20265
bin	0.00016	9591
bin	0.00024	4639
bin	0.00032	2416
bin	0.0004	1423
bin	0.00048	812
bin	0.00056	508
bin	0.00064	350
bin	0.00072	273
bin	0.0008	166
bin	0.00088	132
bin	0.00096	109
bin	0.00104	65
bin	0.00112	70
bin	0.0012	37
bin	0.00128	48
bin	0.00136	33
bin	0.00144	24
bin	0.00152	23
bin	0.0016	14
bin	0.00168	24
bin	0.00176	16
bin	0.00184	15
bin	0.00192	16
bin	0.002	10
bin	0.00208	11
bin	0.00216	3
bin	0.00224	3
bin	0.00232	8
bin	0.0024	5
bin	0.00248	4
bin	0.00256	4
bin	0.00264	5
bin	0.00272	5
bin	0.0028	2
bin	0.00288	0
bin	0.00296	2
bin	0.00304	2
bin	0.00312	1
bin	0.0032	1
bin	0.00328	0
bin	0.00336	0
bin	0.00344	0
bin	0.00352	2
bin	0.0036	0
bin	0.00368	1
bin	0.00376	1
bin	0.00384	0
bin	0.00392	1
bin	0.004	0
scalar Network.tor[4] "cache_content_by_app: " 0.39094650205761
scalar Network.tor[5] "Bandwidth: " 314829000000
statistic Network.tor[5] "flow count"
field count 93
field mean 801.09677419355
field stddev 34.590167148977
field min 731
field max 859
field sum 74502
field sqrsum 59793388
bin	-inf	0
bin	698	0
bin	700	0
bin	702	0
bin	704	0
bin	706	0
bin	708	0
bin	710	0
bin	712	0
bin	714	0
bin	716	0
bin	718	0
bin	720	0
bin	722	0
bin	724	0
bin	726	0
bin	728	0
bin	730	1
bin	732	0
bin	734	0
bin	736	0
bin	738	4
bin	740	0
bin	742	0
bin	744	1
bin	746	0
bin	748	0
bin	750	1
bin	752	2
bin	754	1
bin	756	2
bin	758	1
bin	760	2
bin	762	3
bin	764	1
bin	766	2
bin	768	4
bin	770	0
bin	772	1
bin	774	0
bin	776	1
bin	778	1
bin	780	2
bin	782	3
bin	784	4
bin	786	1
bin	788	0
bin	790	0
bin	792	0
bin	794	0
bin	796	3
bin	798	1
bin	800	3
bin	802	0
bin	804	0
bin	806	2
bin	808	1
bin	810	1
bin	812	0
bin	814	2
bin	816	5
bin	818	3
bin	820	0
bin	822	2
bin	824	2
bin	826	4
bin	828	2
bin	830	2
bin	832	3
bin	834	2
bin	836	1
bin	838	1
bin	840	4
bin	842	1
bin	844	2
bin	846	1
bin	848	4
bin	850	0
bin	852	2
bin	854	0
bin	856	0
bin	858	1
bin	860	0
bin	862	0
bin	864	0
bin	866	0
bin	868	0
bin	870	0
bin	872	0
bin	874	0
bin	876	0
bin	878	0
bin	880	0
bin	882	0
bin	884	0
bin	886	0
bin	888	0
bin	890	0
bin	892	0
statistic Network.tor[5] cache_occupancy
field count 93
field mean 300
field stddev 0
field min 300
field max 300
field sum 27900
field sqrsum 8370000
bin	-inf	0
bin	299	0
bin	300	93
bin	301	0
statistic Network.tor[5] activity_time_of_a_rule_A
field count 44100
field mean 0.00025660640706093
field stddev 0.00044167663628638
field min 0
field max 0.011531295159
field sum 11.316342551387
field sqrsum 0.01150660179585
bin	-inf	0
bin	0	24055
bin	0.00016	9372
bin	0.00032	4535
bin	0.00048	2363
bin	0.00064	1283
bin	0.0008	817
bin	0.00096	449
bin	0.00112	282
bin	0.00128	202
bin	0.00144	118
bin	0.0016	109
bin	0.00176	96
bin	0.00192	55
bin	0.00208	54
bin	0.00224	39
bin	0.0024	28
bin	0.00256	25
bin	0.00272	24
bin	0.00288	19
bin	0.00304	19
bin	0.0032	22
bin	0.00336	9
bin	0.00352	13
bin	0.00368	9
bin	0.00384	5
bin	0.004	10
bin	0.00416	7
bin	0.00432	8
bin	0.00448	3
bin	0.00464	4
bin	0.0048	3
bin	0.00496	8
bin	0.00512	2
bin	0.00528	5
bin	0.00544	2
bin	0.0056	6
bin	0.00576	4
bin	0.00592	5
bin	0.00608	4
bin	0.00624	2
bin	0.0064	0
bin	0.00656	0
bin	0.00672	0
bin	0.00688	1
bin	0.00704	2
bin	0.0072	0
bin	0.00736	3
bin	0.00752	3
bin	0.00768	2
bin	0.00784	3
bin	0.008	1
bin	0.00816	1
bin	0.00832	0
bin	0.00848	2
bin	0.00864	0
bin	0.0088	1
bin	0.00896	1
bin	0.00912	0
bin	0.00928	0
bin	0.00944	0
bin	0.0096	0
bin	0.00976	0
bin	0.00992	1
bin	0.01008	0
bin	0.01024	0
bin	0.0104	0
bin	0.01056	1
bin	0.01072	1
bin	0.01088	0
bin	0.01104	1
bin	0.0112	0
bin	0.01136	0
bin	0.01152	1
bin	0.01168	0
statistic Network.tor[5] activity_time_of_a_rule_B
field count 124640
field mean 8.4956762901933e-005
field stddev 0.00014966682863983
field min 0
field max 0.003640739344
field sum 10.589010928097
field sqrsum 0.0036915415825586
bin	-inf	0
bin	0	83805
bin	8e-005	20817
bin	0.00016	9162
bin	0.00024	4569
bin	0.00032	2372
bin	0.0004	1236
bin	0.00048	799
bin	0.00056	460
bin	0.00064	345
bin	0.00072	259
bin	0.0008	152
bin	0.00088	108
bin	0.00096	106
bin	0.00104	74
bin	0.00112	63
bin	0.0012	44
bin	0.00128	53
bin	0.00136	30
bin	0.00144	19
bin	0.00152	35
bin	0.0016	21
bin	0.00168	15
bin	0.00176	13
bin	0.00184	16
bin	0.00192	14
bin	0.002	7
bin	0.00208	8
bin	0.00216	3
bin	0.00224	6
bin	0.00232	6
bin	0.0024	4
bin	0.00248	4
bin	0.00256	1
bin	0.00264	1
bin	0.00272	4
bin	0.0028	2
bin	0.00288	2
bin	0.00296	0
bin	0.00304	0
bin	0.00312	1
bin	0.0032	3
bin	0.00328	0
bin	0.00336	0
bin	0.00344	0
bin	0.00352	0
bin	0.0036	1
bin	0.00368	0
scalar Network.tor[5] "cache_content_by_app: " 0.388
scalar Network.tor[6] "Bandwidth: " 311809100000
statistic Network.tor[6] "flow count"
field count 93
field mean 792.21505376344
field stddev 23.140332502197
field min 753
field max 841
field sum 73676
field sqrsum 58416500
bin	-inf	0
bin	730	0
bin	732	0
bin	734	0
bin	736	0
bin	738	0
bin	740	0
bin	742	0
bin	744	0
bin	746	0
bin	748	0
bin	750	0
bin	752	1
bin	754	2
bin	756	0
bin	758	1
bin	760	2
bin	762	1
bin	764	4
bin	766	4
bin	768	4
bin	770	2
bin	772	3
bin	774	2
bin	776	5
bin	778	2
bin	780	3
bin	782	1
bin	784	1
bin	786	2
bin	788	7
bin	790	5
bin	792	3
bin	794	2
bin	796	3
bin	798	2
bin	800	1
bin	802	1
bin	804	1
bin	806	2
bin	808	3
bin	810	0
bin	812	3
bin	814	1
bin	816	1
bin	818	2
bin	820	2
bin	822	0
bin	824	1
bin	826	4
bin	828	4
bin	830	1
bin	832	1
bin	834	0
bin	836	1
bin	838	1
bin	840	1
bin	842	0
bin	844	0
bin	846	0
bin	848	0
bin	850	0
bin	852	0
bin	854	0
bin	856	0
bin	858	0
bin	860	0
bin	862	0
bin	864	0
statistic Network.tor[6] cache_occupancy
field count 93
field mean 300
field stddev 0
field min 300
field max 300
field sum 27900
field sqrsum 8370000
bin	-inf	0
bin	299	0
bin	300	93
bin	301	0
statistic Network.tor[6] activity_time_of_a_rule_A
field count 40742
field mean 0.00025730465938957
field stddev 0.00042478589870657
field min 0
field max 0.009796592912
field sum 10.48310643285
field sqrsum 0.010048782826914
bin	-inf	0
bin	0	21967
bin	0.00016	8686
bin	0.00032	4271
bin	0.00048	2318
bin	0.00064	1226
bin	0.0008	706
bin	0.00096	441
bin	0.00112	297
bin	0.00128	187
bin	0.00144	131
bin	0.0016	88
bin	0.00176	67
bin	0.00192	54
bin	0.00208	43
bin	0.00224	30
bin	0.0024	19
bin	0.00256	28
bin	0.00272	21
bin	0.00288	16
bin	0.00304	12
bin	0.0032	7
bin	0.00336	11
bin	0.00352	11
bin	0.00368	9
bin	0.00384	10
bin	0.004	14
bin	0.00416	0
bin	0.00432	5
bin	0.00448	3
bin	0.00464	3
bin	0.0048	3
bin	0.00496	3
bin	0.00512	6
bin	0.00528	9
bin	0.00544	7
bin	0.0056	5
bin	0.00576	5
bin	0.00592	0
bin	0.00608	2
bin	0.00624	1
bin	0.0064	0
bin	0.00656	2
bin	0.00672	1
bin	0.00688	2
bin	0.00704	2
bin	0.0072	1
bin	0.00736	1
bin	0.00752	0
bin	0.00768	1
bin	0.00784	0
bin	0.008	0
bin	0.00816	3
bin	0.00832	2
bin	0.00848	1
bin	0.00864	1
bin	0.0088	0
bin	0.00896	1
bin	0.00912	0
bin	0.00928	0
bin	0.00944	1
bin	0.0096	0
bin	0.00976	1
bin	0.00992	0
statistic Network.tor[6] activity_time_of_a_rule_B
field count 126948
field mean 8.928506798838e-005
field stddev 0.0001590114847637
field min 0
field max 0.004144737417
field sum 11.334560810989
field sqrsum 0.0042218177864745
bin	-inf	0
bin	0	84120
bin	8e-005	21215
bin	0.00016	9693
bin	0.00024	4855
bin	0.00032	2532
bin	0.0004	1437
bin	0.00048	901
bin	0.00056	583
bin	0.00064	405
bin	0.00072	261
bin	0.0008	180
bin	0.00088	145
bin	0.00096	94
bin	0.00104	68
bin	0.00112	72
bin	0.0012	64
bin	0.00128	47
bin	0.00136	46
bin	0.00144	31
bin	0.00152	28
bin	0.0016	24
bin	0.00168	15
bin	0.00176	21
bin	0.00184	18
bin	0.00192	9
bin	0.002	10
bin	0.00208	6
bin	0.00216	10
bin	0.00224	7
bin	0.00232	11
bin	0.0024	5
bin	0.00248	7
bin	0.00256	10
bin	0.00264	3
bin	0.00272	4
bin	0.0028	2
bin	0.00288	3
bin	0.00296	0
bin	0.00304	2
bin	0.00312	0
bin	0.0032	1
bin	0.00328	1
bin	0.00336	0
bin	0.00344	0
bin	0.00352	1
bin	0.0036	0
bin	0.00368	0
bin	0.00376	0
bin	0.00384	0
bin	0.00392	0
bin	0.004	0
bin	0.00408	1
bin	0.00416	0
scalar Network.tor[6] "cache_content_by_app: " 0.41975308641975
scalar Network.tor[7] "Bandwidth: " 307089700000
statistic Network.tor[7] "flow count"
field count 93
field mean 784.5376344086
field stddev 18.054602652837
field min 746
field max 826
field sum 72962
field sqrsum 57271424
bin	-inf	0
bin	726	0
bin	728	0
bin	730	0
bin	732	0
bin	734	0
bin	736	0
bin	738	0
bin	740	0
bin	742	0
bin	744	0
bin	746	1
bin	748	0
bin	750	2
bin	752	2
bin	754	1
bin	756	4
bin	758	1
bin	760	0
bin	762	4
bin	764	2
bin	766	2
bin	768	1
bin	770	1
bin	772	3
bin	774	3
bin	776	5
bin	778	1
bin	780	4
bin	782	7
bin	784	3
bin	786	1
bin	788	7
bin	790	2
bin	792	3
bin	794	7
bin	796	3
bin	798	4
bin	800	4
bin	802	4
bin	804	1
bin	806	2
bin	808	1
bin	810	3
bin	812	0
bin	814	1
bin	816	0
bin	818	0
bin	820	0
bin	822	0
bin	824	1
bin	826	2
bin	828	0
bin	830	0
bin	832	0
bin	834	0
bin	836	0
bin	838	0
bin	840	0
bin	842	0
bin	844	0
bin	846	0
statistic Network.tor[7] cache_occupancy
field count 93
field mean 300
field stddev 0
field min 300
field max 300
field sum 27900
field sqrsum 8370000
bin	-inf	0
bin	299	0
bin	300	93
bin	301	0
statistic Network.tor[7] activity_time_of_a_rule_A
field count 36111
field mean 0.0002911586995238
field stddev 0.00046385792582248
field min 0
field max 0.010749329629
field sum 10.514031798504
field sqrsum 0.010830830197033
bin	-inf	0
bin	0	15521
bin	0.00012	7338
bin	0.00024	4433
bin	0.00036	2647
bin	0.00048	1742
bin	0.0006	1167
bin	0.00072	770
bin	0.00084	550
bin	0.00096	382
bin	0.00108	303
bin	0.0012	217
bin	0.00132	185
bin	0.00144	123
bin	0.00156	108
bin	0.00168	82
bin	0.0018	79
bin	0.00192	63
bin	0.00204	52
bin	0.00216	43
bin	0.00228	32
bin	0.0024	30
bin	0.00252	24
bin	0.00264	19
bin	0.00276	17
bin	0.00288	15
bin	0.003	15
bin	0.00312	11
bin	0.00324	10
bin	0.00336	8
bin	0.00348	14
bin	0.0036	14
bin	0.00372	11
bin	0.00384	7
bin	0.00396	11
bin	0.00408	10
bin	0.0042	2
bin	0.00432	1
bin	0.00444	4
bin	0.00456	1
bin	0.00468	3
bin	0.0048	3
bin	0.00492	5
bin	0.00504	3
bin	0.00516	2
bin	0.00528	2
bin	0.0054	2
bin	0.00552	1
bin	0.00564	1
bin	0.00576	0
bin	0.00588	1
bin	0.006	2
bin	0.00612	2
bin	0.00624	1
bin	0.00636	2
bin	0.00648	1
bin	0.0066	3
bin	0.00672	1
bin	0.00684	1
bin	0.00696	0
bin	0.00708	1
bin	0.0072	2
bin	0.00732	5
bin	0.00744	1
bin	0.00756	0
bin	0.00768	1
bin	0.0078	0
bin	0.00792	0
bin	0.00804	0
bin	0.00816	1
bin	0.00828	1
bin	0.0084	0
bin	0.00852	0
bin	0.00864	0
bin	0.00876	0
bin	0.00888	0
bin	0.009	0
bin	0.00912	0
bin	0.00924	0
bin	0.00936	1
bin	0.00948	0
bin	0.0096	0
bin	0.00972	0
bin	0.00984	0
bin	0.00996	0
bin	0.01008	0
bin	0.0102	0
bin	0.01032	0
bin	0.01044	0
bin	0.01056	0
bin	0.01068	1
bin	0.0108	0
statistic Network.tor[7] activity_time_of_a_rule_B
field count 125029
field mean 9.1742403196531e-005
field stddev 0.00016062568780503
field min 0
field max 0.004590545201
field sum 11.470460929259
field sqrsum 0.0042781265164013
bin	-inf	0
bin	0	81647
bin	8e-005	21195
bin	0.00016	9902
bin	0.00024	4959
bin	0.00032	2669
bin	0.0004	1517
bin	0.00048	917
bin	0.00056	600
bin	0.00064	385
bin	0.00072	260
bin	0.0008	186
bin	0.00088	142
bin	0.00096	123
bin	0.00104	85
bin	0.00112	64
bin	0.0012	70
bin	0.00128	46
bin	0.00136	42
bin	0.00144	29
bin	0.00152	26
bin	0.0016	23
bin	0.00168	18
bin	0.00176	21
bin	0.00184	16
bin	0.00192	10
bin	0.002	8
bin	0.00208	9
bin	0.00216	8
bin	0.00224	8
bin	0.00232	10
bin	0.0024	1
bin	0.00248	3
bin	0.00256	2
bin	0.00264	4
bin	0.00272	6
bin	0.0028	5
bin	0.00288	2
bin	0.00296	4
bin	0.00304	3
bin	0.00312	1
bin	0.0032	1
bin	0.00328	0
bin	0.00336	0
bin	0.00344	0
bin	0.00352	0
bin	0.0036	0
bin	0.00368	1
bin	0.00376	0
bin	0.00384	0
bin	0.00392	0
bin	0.004	0
bin	0.00408	0
bin	0.00416	0
bin	0.00424	0
bin	0.00432	0
bin	0.0044	0
bin	0.00448	0
bin	0.00456	1
bin	0.00464	0
scalar Network.tor[7] "cache_content_by_app: " 0.39183673469388
scalar Network.tor[8] "Bandwidth: " 333665800000
statistic Network.tor[8] "flow count"
field count 93
field mean 819.2688172043
field stddev 15.178030307671
field min 784
field max 849
field sum 76192
field sqrsum 62442924
bin	-inf	0
bin	766	0
bin	768	0
bin	770	0
bin	772	0
bin	774	0
bin	776	0
bin	778	0
bin	780	0
bin	782	0
bin	784	2
bin	786	1
bin	788	1
bin	790	0
bin	792	1
bin	794	1
bin	796	1
bin	798	2
bin	800	3
bin	802	2
bin	804	2
bin	806	2
bin	808	8
bin	810	4
bin	812	6
bin	814	2
bin	816	3
bin	818	4
bin	820	6
bin	822	8
bin	824	3
bin	826	3
bin	828	1
bin	830	5
bin	832	2
bin	834	2
bin	836	5
bin	838	4
bin	840	4
bin	842	0
bin	844	3
bin	846	0
bin	848	2
bin	850	0
bin	852	0
bin	854	0
bin	856	0
bin	858	0
bin	860	0
bin	862	0
bin	864	0
bin	866	0
statistic Network.tor[8] cache_occupancy
field count 93
field mean 300
field stddev 0
field min 300
field max 300
field sum 27900
field sqrsum 8370000
bin	-inf	0
bin	299	0
bin	300	93
bin	301	0
statistic Network.tor[8] activity_time_of_a_rule_A
field count 49664
field mean 0.00023563919258431
field stddev 0.00039434831221973
field min 0
field max 0.01056536896
field sum 11.702784860507
field sqrsum 0.01048075727376
bin	-inf	0
bin	0	28099
bin	0.00016	10622
bin	0.00032	4899
bin	0.00048	2401
bin	0.00064	1296
bin	0.0008	718
bin	0.00096	435
bin	0.00112	299
bin	0.00128	164
bin	0.00144	150
bin	0.0016	101
bin	0.00176	72
bin	0.00192	83
bin	0.00208	54
bin	0.00224	36
bin	0.0024	22
bin	0.00256	20
bin	0.00272	21
bin	0.00288	14
bin	0.00304	16
bin	0.0032	15
bin	0.00336	21
bin	0.00352	12
bin	0.00368	7
bin	0.00384	8
bin	0.004	8
bin	0.00416	5
bin	0.00432	4
bin	0.00448	8
bin	0.00464	6
bin	0.0048	6
bin	0.00496	2
bin	0.00512	4
bin	0.00528	5
bin	0.00544	2
bin	0.0056	2
bin	0.00576	2
bin	0.00592	2
bin	0.00608	4
bin	0.00624	1
bin	0.0064	1
bin	0.00656	3
bin	0.00672	1
bin	0.00688	1
bin	0.00704	0
bin	0.0072	2
bin	0.00736	0
bin	0.00752	1
bin	0.00768	1
bin	0.00784	0
bin	0.008	0
bin	0.00816	2
bin	0.00832	0
bin	0.00848	0
bin	0.00864	0
bin	0.0088	1
bin	0.00896	0
bin	0.00912	1
bin	0.00928	0
bin	0.00944	1
bin	0.0096	0
bin	0.00976	1
bin	0.00992	1
bin	0.01008	0
bin	0.01024	0
bin	0.0104	0
bin	0.01056	1
bin	0.01072	0
statistic Network.tor[8] activity_time_of_a_rule_B
field count 129776
field mean 7.8211178407387e-005
field stddev 0.00014397197738097
field min 0
field max 0.003808893127
field sum 10.149933888997
field sqrsum 0.0034838054411329
bin	-inf	0
bin	0	90592
bin	8e-005	20570
bin	0.00016	8862
bin	0.00024	4054
bin	0.00032	2081
bin	0.0004	1162
bin	0.00048	703
bin	0.00056	461
bin	0.00064	298
bin	0.00072	198
bin	0.0008	156
bin	0.00088	120
bin	0.00096	96
bin	0.00104	67
bin	0.00112	52
bin	0.0012	46
bin	0.00128	45
bin	0.00136	28
bin	0.00144	29
bin	0.00152	19
bin	0.0016	23
bin	0.00168	19
bin	0.00176	11
bin	0.00184	9
bin	0.00192	17
bin	0.002	8
bin	0.00208	12
bin	0.00216	4
bin	0.00224	3
bin	0.00232	5
bin	0.0024	2
bin	0.00248	3
bin	0.00256	3
bin	0.00264	3
bin	0.00272	2
bin	0.0028	4
bin	0.00288	0
bin	0.00296	4
bin	0.00304	1
bin	0.00312	0
bin	0.0032	1
bin	0.00328	0
bin	0.00336	0
bin	0.00344	2
bin	0.00352	0
bin	0.0036	0
bin	0.00368	0
bin	0.00376	1
bin	0.00384	0
scalar Network.tor[8] "cache_content_by_app: " 0.40983606557377
scalar Network.tor[9] "Bandwidth: " 319443300000
statistic Network.tor[9] "flow count"
field count 93
field mean 791.08602150538
field stddev 18.790987614313
field min 746
field max 832
field sum 73571
field sqrsum 58233475
bin	-inf	0
bin	724	0
bin	726	0
bin	728	0
bin	730	0
bin	732	0
bin	734	0
bin	736	0
bin	738	0
bin	740	0
bin	742	0
bin	744	0
bin	746	1
bin	748	1
bin	750	0
bin	752	0
bin	754	0
bin	756	0
bin	758	0
bin	760	0
bin	762	3
bin	764	4
bin	766	0
bin	768	0
bin	770	2
bin	772	9
bin	774	2
bin	776	1
bin	778	7
bin	780	2
bin	782	3
bin	784	1
bin	786	7
bin	788	1
bin	790	7
bin	792	5
bin	794	1
bin	796	1
bin	798	3
bin	800	3
bin	802	4
bin	804	3
bin	806	1
bin	808	5
bin	810	3
bin	812	1
bin	814	1
bin	816	2
bin	818	1
bin	820	1
bin	822	2
bin	824	2
bin	826	1
bin	828	0
bin	830	1
bin	832	1
bin	834	0
bin	836	0
bin	838	0
bin	840	0
bin	842	0
bin	844	0
bin	846	0
bin	848	0
bin	850	0
bin	852	0
bin	854	0
statistic Network.tor[9] cache_occupancy
field count 93
field mean 300
field stddev 0
field min 300
field max 300
field sum 27900
field sqrsum 8370000
bin	-inf	0
bin	299	0
bin	300	93
bin	301	0
statistic Network.tor[9] activity_time_of_a_rule_A
field count 43720
field mean 0.00026094794163003
field stddev 0.0004444108858745
field min 0
field max 0.014043676852
field sum 11.408644008065
field sqrsum 0.011611609941009
bin	-inf	0
bin	0	23629
bin	0.00016	9248
bin	0.00032	4596
bin	0.00048	2366
bin	0.00064	1338
bin	0.0008	767
bin	0.00096	480
bin	0.00112	330
bin	0.00128	226
bin	0.00144	125
bin	0.0016	106
bin	0.00176	72
bin	0.00192	59
bin	0.00208	53
bin	0.00224	32
bin	0.0024	35
bin	0.00256	32
bin	0.00272	32
bin	0.00288	25
bin	0.00304	15
bin	0.0032	19
bin	0.00336	13
bin	0.00352	9
bin	0.00368	10
bin	0.00384	8
bin	0.004	8
bin	0.00416	9
bin	0.00432	15
bin	0.00448	5
bin	0.00464	1
bin	0.0048	3
bin	0.00496	6
bin	0.00512	2
bin	0.00528	3
bin	0.00544	4
bin	0.0056	2
bin	0.00576	3
bin	0.00592	5
bin	0.00608	1
bin	0.00624	0
bin	0.0064	1
bin	0.00656	3
bin	0.00672	0
bin	0.00688	4
bin	0.00704	1
bin	0.0072	1
bin	0.00736	1
bin	0.00752	0
bin	0.00768	0
bin	0.00784	1
bin	0.008	1
bin	0.00816	3
bin	0.00832	1
bin	0.00848	1
bin	0.00864	1
bin	0.0088	2
bin	0.00896	1
bin	0.00912	3
bin	0.00928	0
bin	0.00944	1
bin	0.0096	0
bin	0.00976	0
bin	0.00992	0
bin	0.01008	0
bin	0.01024	0
bin	0.0104	0
bin	0.01056	0
bin	0.01072	0
bin	0.01088	0
bin	0.01104	0
bin	0.0112	0
bin	0.01136	0
bin	0.01152	0
bin	0.01168	1
bin	0.01184	0
bin	0.012	0
bin	0.01216	0
bin	0.01232	0
bin	0.01248	0
bin	0.01264	0
bin	0.0128	0
bin	0.01296	0
bin	0.01312	0
bin	0.01328	0
bin	0.01344	0
bin	0.0136	0
bin	0.01376	0
bin	0.01392	1
bin	0.01408	0
statistic Network.tor[9] activity_time_of_a_rule_B
field count 123900
field mean 8.5096329267627e-005
field stddev 0.00015302678626629
field min 0
field max 0.003485519195
field sum 10.543435196259
field sqrsum 0.0037985749632024
bin	-inf	0
bin	0	75062
bin	6e-005	20894
bin	0.00012	11010
bin	0.00018	6209
bin	0.00024	3529
bin	0.0003	2159
bin	0.00036	1415
bin	0.00042	905
bin	0.00048	606
bin	0.00054	463
bin	0.0006	323
bin	0.00066	242
bin	0.00072	200
bin	0.00078	131
bin	0.00084	109
bin	0.0009	93
bin	0.00096	67
bin	0.00102	70
bin	0.00108	58
bin	0.00114	39
bin	0.0012	48
bin	0.00126	21
bin	0.00132	21
bin	0.00138	19
bin	0.00144	13
bin	0.0015	23
bin	0.00156	24
bin	0.00162	20
bin	0.00168	7
bin	0.00174	12
bin	0.0018	9
bin	0.00186	8
bin	0.00192	6
bin	0.00198	12
bin	0.00204	7
bin	0.0021	5
bin	0.00216	6
bin	0.00222	5
bin	0.00228	5
bin	0.00234	7
bin	0.0024	7
bin	0.00246	4
bin	0.00252	4
bin	0.00258	4
bin	0.00264	0
bin	0.0027	4
bin	0.00276	2
bin	0.00282	2
bin	0.00288	2
bin	0.00294	2
bin	0.003	0
bin	0.00306	0
bin	0.00312	2
bin	0.00318	1
bin	0.00324	2
bin	0.0033	0
bin	0.00336	0
bin	0.00342	1
bin	0.00348	1
bin	0.00354	0
scalar Network.tor[9] "cache_content_by_app: " 0.39094650205761
scalar Network.agg[0] "Bandwidth: " 3988185200000
statistic Network.agg[0] "flow count"
field count 93
field mean 4001.5161290323
field stddev 29.511829943128
field min 3925
field max 4069
field sum 372141
field sqrsum 1489208341
bin	-inf	0
bin	3910	0
bin	3912	0
bin	3914	0
bin	3916	0
bin	3918	0
bin	3920	0
bin	3922	0
bin	3924	1
bin	3926	0
bin	3928	0
bin	3930	0
bin	3932	0
bin	3934	0
bin	3936	1
bin	3938	0
bin	3940	0
bin	3942	2
bin	3944	0
bin	3946	0
bin	3948	0
bin	3950	0
bin	3952	0
bin	3954	1
bin	3956	1
bin	3958	0
bin	3960	2
bin	3962	4
bin	3964	1
bin	3966	3
bin	3968	1
bin	3970	0
bin	3972	0
bin	3974	0
bin	3976	1
bin	3978	2
bin	3980	3
bin	3982	1
bin	3984	1
bin	3986	0
bin	3988	3
bin	3990	3
bin	3992	2
bin	3994	4
bin	3996	2
bin	3998	5
bin	4000	3
bin	4002	4
bin	4004	1
bin	4006	4
bin	4008	2
bin	4010	2
bin	4012	1
bin	4014	2
bin	4016	3
bin	4018	3
bin	4020	2
bin	4022	1
bin	4024	0
bin	4026	0
bin	4028	1
bin	4030	3
bin	4032	4
bin	4034	2
bin	4036	2
bin	4038	2
bin	4040	0
bin	4042	1
bin	4044	1
bin	4046	0
bin	4048	1
bin	4050	0
bin	4052	0
bin	4054	0
bin	4056	1
bin	4058	0
bin	4060	1
bin	4062	1
bin	4064	0
bin	4066	0
bin	4068	1
bin	4070	0
bin	4072	0
bin	4074	0
bin	4076	0
bin	4078	0
bin	4080	0
bin	4082	0
bin	4084	0
bin	4086	0
bin	4088	0
bin	4090	0
bin	4092	0
bin	4094	0
bin	4096	0
bin	4098	0
bin	4100	0
bin	4102	0
statistic Network.agg[0] cache_occupancy
field count 93
field mean 1500
field stddev 0
field min 1500
field max 1500
field sum 139500
field sqrsum 209250000
bin	-inf	0
bin	1499	0
bin	1500	93
bin	1501	0
statistic Network.agg[0] activity_time_of_a_rule_A
field count 666005
field mean 3.0136627564412e-005
field stddev 2.6747801311963e-005
field min 0
field max 0.000339206934
field sum 20.071144641036
field sqrsum 0.001081365759384
bin	-inf	0
bin	0	118569
bin	4e-006	29552
bin	8e-006	35962
bin	1.2e-005	41097
bin	1.6e-005	43528
bin	2e-005	44557
bin	2.4e-005	44122
bin	2.8e-005	41590
bin	3.2e-005	38692
bin	3.6e-005	35006
bin	4e-005	30752
bin	4.4e-005	26951
bin	4.8e-005	23205
bin	5.2e-005	19299
bin	5.6e-005	16157
bin	6e-005	13251
bin	6.4e-005	10782
bin	6.8e-005	8909
bin	7.2e-005	7206
bin	7.6e-005	5907
bin	8e-005	4894
bin	8.4e-005	3982
bin	8.8e-005	3214
bin	9.2e-005	2541
bin	9.6e-005	2170
bin	0.0001	1860
bin	0.000104	1575
bin	0.000108	1374
bin	0.000112	1151
bin	0.000116	1045
bin	0.00012	917
bin	0.000124	840
bin	0.000128	699
bin	0.000132	575
bin	0.000136	550
bin	0.00014	464
bin	0.000144	419
bin	0.000148	360
bin	0.000152	333
bin	0.000156	262
bin	0.00016	246
bin	0.000164	229
bin	0.000168	177
bin	0.000172	142
bin	0.000176	136
bin	0.00018	106
bin	0.000184	96
bin	0.000188	72
bin	0.000192	76
bin	0.000196	67
bin	0.0002	50
bin	0.000204	35
bin	0.000208	35
bin	0.000212	33
bin	0.000216	24
bin	0.00022	23
bin	0.000224	25
bin	0.000228	18
bin	0.000232	15
bin	0.000236	12
bin	0.00024	5
bin	0.000244	8
bin	0.000248	9
bin	0.000252	7
bin	0.000256	5
bin	0.00026	5
bin	0.000264	3
bin	0.000268	4
bin	0.000272	4
bin	0.000276	1
bin	0.00028	1
bin	0.000284	2
bin	0.000288	4
bin	0.000292	0
bin	0.000296	1
bin	0.0003	1
bin	0.000304	2
bin	0.000308	0
bin	0.000312	4
bin	0.000316	1
bin	0.00032	1
bin	0.000324	0
bin	0.000328	0
bin	0.000332	0
bin	0.000336	1
bin	0.00034	0
statistic Network.agg[0] activity_time_of_a_rule_B
field count 1163351
field mean 5.4575558035424e-005
field stddev 6.4043670009895e-005
field min 0
field max 0.001200188268
field sum 63.490530016068
field sqrsum 0.0082366177729509
bin	-inf	0
bin	0	379107
bin	1.6e-005	160609
bin	3.2e-005	142039
bin	4.8e-005	114200
bin	6.4e-005	87389
bin	8e-005	66049
bin	9.6e-005	50103
bin	0.000112	37688
bin	0.000128	28425
bin	0.000144	21541
bin	0.00016	16720
bin	0.000176	12762
bin	0.000192	9774
bin	0.000208	7607
bin	0.000224	5964
bin	0.00024	4611
bin	0.000256	3639
bin	0.000272	3018
bin	0.000288	2402
bin	0.000304	1733
bin	0.00032	1505
bin	0.000336	1185
bin	0.000352	933
bin	0.000368	787
bin	0.000384	610
bin	0.0004	499
bin	0.000416	395
bin	0.000432	323
bin	0.000448	295
bin	0.000464	217
bin	0.00048	200
bin	0.000496	152
bin	0.000512	122
bin	0.000528	127
bin	0.000544	110
bin	0.00056	81
bin	0.000576	74
bin	0.000592	52
bin	0.000608	39
bin	0.000624	34
bin	0.00064	39
bin	0.000656	33
bin	0.000672	11
bin	0.000688	24
bin	0.000704	21
bin	0.00072	21
bin	0.000736	12
bin	0.000752	5
bin	0.000768	13
bin	0.000784	7
bin	0.0008	5
bin	0.000816	3
bin	0.000832	3
bin	0.000848	4
bin	0.000864	4
bin	0.00088	1
bin	0.000896	3
bin	0.000912	3
bin	0.000928	2
bin	0.000944	2
bin	0.00096	2
bin	0.000976	2
bin	0.000992	2
bin	0.001008	3
bin	0.001024	1
bin	0.00104	1
bin	0.001056	1
bin	0.001072	0
bin	0.001088	0
bin	0.001104	1
bin	0.00112	1
bin	0.001136	0
bin	0.001152	0
bin	0.001168	0
bin	0.001184	0
bin	0.0012	1
bin	0.001216	0
scalar Network.agg[0] "cache_content_by_app: " 0.32321575061526
statistic Network.dest "miss count"
field count 32517047
field mean 0.64804104136516
field stddev 0.82525394125391
field min 0
field max 2
field sum 21072381
field sqrsum 35801309
bin	-inf	0
bin	0	18809130
bin	1	6343453
bin	2	7364464
bin	3	0
statistic Network.dest "out of order"
field count 32517047
field mean 1.0985285964005
field stddev 10.182147357087
field min -20
field max 4842
field sum 35720906
field sqrsum 3410481756
bin	-inf	0
bin	-100	17036
bin	0	32493489
bin	100	1346
bin	200	1394
bin	300	1453
bin	400	1128
bin	500	94
bin	600	83
bin	700	86
bin	800	87
bin	900	73
bin	1000	78
bin	1100	62
bin	1200	68
bin	1300	57
bin	1400	65
bin	1500	53
bin	1600	40
bin	1700	41
bin	1800	44
bin	1900	37
bin	2000	36
bin	2100	29
bin	2200	30
bin	2300	33
bin	2400	19
bin	2500	20
bin	2600	29
bin	2700	10
bin	2800	8
bin	2900	9
bin	3000	1
bin	3100	0
bin	3200	0
bin	3300	0
bin	3400	1
bin	3500	0
bin	3600	0
bin	3700	1
bin	3800	1
bin	3900	1
bin	4000	0
bin	4100	0
bin	4200	0
bin	4300	1
bin	4400	1
bin	4500	0
bin	4600	2
bin	4700	0
bin	4800	1
bin	4900	0
statistic Network.dest "bandwidth to destination"
field count 93
field mean 3251571270161.3
field stddev 57921867682.861
field min 3127650000000
field max 3401456250000
field sum 3.02396128125e+014
field sqrsum 9.835712171528e+026
bin	-inf	0
bin	3055000000000	0
bin	3060000000000	0
bin	3065000000000	0
bin	3070000000000	0
bin	3075000000000	0
bin	3080000000000	0
bin	3085000000000	0
bin	3090000000000	0
bin	3095000000000	0
bin	3100000000000	0
bin	3105000000000	0
bin	3110000000000	0
bin	3115000000000	0
bin	3120000000000	0
bin	3125000000000	1
bin	3130000000000	0
bin	3135000000000	0
bin	3140000000000	0
bin	3145000000000	1
bin	3150000000000	1
bin	3155000000000	0
bin	3160000000000	2
bin	3165000000000	2
bin	3170000000000	0
bin	3175000000000	0
bin	3180000000000	3
bin	3185000000000	2
bin	3190000000000	3
bin	3195000000000	4
bin	3200000000000	1
bin	3205000000000	4
bin	3210000000000	2
bin	3215000000000	2
bin	3220000000000	3
bin	3225000000000	4
bin	3230000000000	4
bin	3235000000000	4
bin	3240000000000	4
bin	3245000000000	1
bin	3250000000000	2
bin	3255000000000	3
bin	3260000000000	2
bin	3265000000000	5
bin	3270000000000	2
bin	3275000000000	5
bin	3280000000000	3
bin	3285000000000	2
bin	3290000000000	5
bin	3295000000000	0
bin	3300000000000	3
bin	3305000000000	0
bin	3310000000000	2
bin	3315000000000	1
bin	3320000000000	1
bin	3325000000000	0
bin	3330000000000	0
bin	3335000000000	0
bin	3340000000000	1
bin	3345000000000	1
bin	3350000000000	1
bin	3355000000000	0
bin	3360000000000	1
bin	3365000000000	0
bin	3370000000000	2
bin	3375000000000	1
bin	3380000000000	0
bin	3385000000000	0
bin	3390000000000	0
bin	3395000000000	0
bin	3400000000000	2
bin	3405000000000	0
bin	3410000000000	0
bin	3415000000000	0
bin	3420000000000	0
bin	3425000000000	0
bin	3430000000000	0
bin	3435000000000	0
bin	3440000000000	0
bin	3445000000000	0
bin	3450000000000	0
bin	3455000000000	0
bin	3460000000000	0
bin	3465000000000	0
bin	3470000000000	0
statistic Network.dest miss_count_by_apps
field count 32517047
field mean 0.89165049335507
field stddev 0.92696841277527
field min 0
field max 2.5
field sum 28993841
field sqrsum 53793309
bin	-inf	0
bin	-0.02	12336255
bin	0.01	0
bin	0.04	0
bin	0.07	0
bin	0.1	0
bin	0.13	0
bin	0.16	0
bin	0.19	0
bin	0.22	0
bin	0.25	0
bin	0.28	0
bin	0.31	0
bin	0.34	0
bin	0.37	0
bin	0.4	0
bin	0.43	0
bin	0.46	0
bin	0.49	6472875
bin	0.52	0
bin	0.55	0
bin	0.58	0
bin	0.61	0
bin	0.64	0
bin	0.67	0
bin	0.7	0
bin	0.73	0
bin	0.76	0
bin	0.79	0
bin	0.82	0
bin	0.85	0
bin	0.88	0
bin	0.91	0
bin	0.94	0
bin	0.97	0
bin	1	1634633
bin	1.03	0
bin	1.06	0
bin	1.09	0
bin	1.12	0
bin	1.15	0
bin	1.18	0
bin	1.21	0
bin	1.24	0
bin	1.27	0
bin	1.3	0
bin	1.33	0
bin	1.36	0
bin	1.39	0
bin	1.42	0
bin	1.45	0
bin	1.48	4708820
bin	1.51	0
bin	1.54	0
bin	1.57	0
bin	1.6	0
bin	1.63	0
bin	1.66	0
bin	1.69	0
bin	1.72	0
bin	1.75	0
bin	1.78	0
bin	1.81	0
bin	1.84	0
bin	1.87	0
bin	1.9	0
bin	1.93	0
bin	1.96	0
bin	1.99	2703239
bin	2.02	0
bin	2.05	0
bin	2.08	0
bin	2.11	0
bin	2.14	0
bin	2.17	0
bin	2.2	0
bin	2.23	0
bin	2.26	0
bin	2.29	0
bin	2.32	0
bin	2.35	0
bin	2.38	0
bin	2.41	0
bin	2.44	0
bin	2.47	0
bin	2.5	4661225
bin	2.53	0
bin	2.56	0
bin	2.59	0
bin	2.62	0
bin	2.65	0
scalar Network.dest "Simulation duration (in minutes). By chrono library: " 4.9333333333333

