version 2
run General-0-20221030-07:26:56-5160
attr configname General
attr datetime 20221030-07:26:56
attr experiment General
attr inifile omnetpp.ini
attr iterationvars ""
attr iterationvarsf ""
attr measurement ""
attr network Network
attr processid 5160
attr repetition 0
attr replication #0
attr resultdir results
attr runnumber 0
attr seedset 0
param Network.NumOfToRs 5
param Network.NumOfAggregation 3
param Network.rack[*].number_of_hosts 1000
param Network.linedelay 0.2
param Network.tor[*].CacheSize 1000
param Network.agg[*].CacheSize 1000
param Network.controllerswitch.CacheSize 1000
param Network.tor[*].threshold 2
param Network.agg[*].threshold 2
param Network.controllerswitch.threshold 1
param Network.tor[*].Type 1001
param Network.agg[*].Type 1002
param Network.controllerswitch.Type 1003
param Network.rack[*].host[*].flow_appearance "\"\""
param Network.rack[*].host[*].flow_size "\"\""
param Network.policy_size "\"\""
param Network.cache_size "\"\""
param Network.propagation_time "\"\""
param Network.processing_time_on_data_packet_in_sw "\"\""
param Network.processing_time_on_data_packet_in_controller "\"\""
param Network.insertion_delay "\"\""
param Network.eviction_delay "\"\""
param Network.elephant_table_size "\"\""
param Network.flush_elephant_time "\"\""
param Network.check_for_elephant_time "\"\""
param Network.elephant_sample_rx "\"\""
param Network.bandwidth_elephant_threshold "\"\""
param Network.already_requested_threshold "\"\""
param Network.push_threshold_in_aggregation "\"\""
param Network.push_threshold_in_controller_switch "\"\""
param Network.cache_percentage "\"\""
param Network.eviction_sample_size "\"\""
param Network.inter_arrival_time_between_packets "\"\""
param Network.inter_arrival_time_between_flowlets "\"\""
param Network.inter_arrival_time_between_flows "\"\""
param Network.large_flow "\"\""
param Network.last_flow_id "\"0\""
param Network.last_flow_appearance "\"0\""

statistic Network.dest "miss count"
field count 0
field mean nan
field stddev nan
field min nan
field max nan
field sum 0
field sqrsum 0
bin	-inf	0
bin	0	0
bin	1	0
statistic Network.dest "out of order"
field count 0
field mean nan
field stddev nan
field min nan
field max nan
field sum 0
field sqrsum 0
bin	-inf	0
bin	0	0
bin	1	0

