version 2
run General-3-20230921-09:03:32-2864
attr configname General
attr datetime 20230921-09:03:32
attr experiment General
attr inifile omnetpp.ini
attr iterationvars "$endSim=3.12s, $hosts=15000, $SizeDist=i-hadoop, $p=0.5, $scale=1, $alg=diversity, $diversityTh=2, $pAlg=0.5, $countTh=6, $ThInAgg=2.5e9, $packetIndexAgg=4, $packetIndexCosw=4, $NumOfToRs=10, $cacheToR=300, $cacheAgg=10*300*0.5, $thInCons=2.5e9, $rate=1600000000000, $S=xxx/diversity p = 0.5 th in Agg = 2.5e9 countTh = 6 App A=(Hadoop 2.5e9 t 4) App B (avg(Hadoop) 2.5e9 d 4)/end time = 3.12s CToR = 300/"
attr iterationvarsf endSim=3.12s,hosts=15000,SizeDist=i-hadoop,p=0.5,scale=1,alg=diversity,diversityTh=2,pAlg=0.5,countTh=6,ThInAgg=2.5e9,packetIndexAgg=4,packetIndexCosw=4,NumOfToRs=10,cacheToR=300,cacheAgg=10#2a300#2a0.5,thInCons=2.5e9,rate=1600000000000,S=xxx#2fdiversity_p_=_0.5_th_in_Agg_=_2.5e9_countTh_=_6_App_A=(Hadoop_2.5e9_t_4)_App_B_(avg(Hadoop)_2.5e9_d_4)#2fend_time_=_3.12s_CToR_=_300#2f-
attr measurement "$endSim=3.12s, $hosts=15000, $SizeDist=i-hadoop, $p=0.5, $scale=1, $alg=diversity, $diversityTh=2, $pAlg=0.5, $countTh=6, $ThInAgg=2.5e9, $packetIndexAgg=4, $packetIndexCosw=4, $NumOfToRs=10, $cacheToR=300, $cacheAgg=10*300*0.5, $thInCons=2.5e9, $rate=1600000000000, $S=xxx/diversity p = 0.5 th in Agg = 2.5e9 countTh = 6 App A=(Hadoop 2.5e9 t 4) App B (avg(Hadoop) 2.5e9 d 4)/end time = 3.12s CToR = 300/"
attr network Network
attr processid 2864
attr repetition 0
attr replication #0
attr resultdir results
attr runnumber 3
attr seedset 3
itervar NumOfToRs 10
itervar S "xxx/diversity p = 0.5 th in Agg = 2.5e9 countTh = 6 App A=(Hadoop 2.5e9 t 4) App B (avg(Hadoop) 2.5e9 d 4)/end time = 3.12s CToR = 300/"
itervar SizeDist i-hadoop
itervar ThInAgg 2.5e9
itervar alg diversity
itervar cacheAgg 10*300*0.5
itervar cacheToR 300
itervar countTh 6
itervar diversityTh 2
itervar endSim 3.12s
itervar hosts 15000
itervar p 0.5
itervar pAlg 0.5
itervar packetIndexAgg 4
itervar packetIndexCosw 4
itervar rate 1600000000000
itervar scale 1
itervar thInCons 2.5e9
param Network.estimate_rate_interval 0.5e-3
param Network.policy_size "\"10e6\""
param Network.rack[*].number_of_hosts 15000
param Network.size_distribution "\"size_distribution/i-hadoop.csv\""
param Network.prob_of_app_A 0.5
param Network.scale 1
param Network.algorithm "\"diversity\""
param Network.diversity_th 2
param Network.p_in_algorithm 0.5
param Network.count_th 6
param Network.push_threshold_in_aggregation 2.5e9
param Network.packet_index_for_decision_Agg 4
param Network.packet_index_for_decision_cosw 4
param Network.cache_size "\"2222\""
param Network.NumOfToRs 10
param Network.NumOfAggregation 1
param Network.tor[*].max_cache_size 300
param Network.agg[*].max_cache_size 10*300*0.5
param Network.push_threshold_in_controller_switch 2.5e9
param Network.total_rate_in_tor "\"1600000000000\""
param Network.output_file "\"xxx/diversity p = 0.5 th in Agg = 2.5e9 countTh = 6 App A=(Hadoop 2.5e9 t 4) App B (avg(Hadoop) 2.5e9 d 4)/end time = 3.12s CToR = 300/\""
param Network.run_elephant true
param Network.bandwidth_elephant_threshold "\"2.5e9\""
param Network.run_push true
param Network.record_traffic false
param Network.create_offline_traffic false
param Network.linedelay 0.2
param Network.tor[*].threshold 2
param Network.agg[*].threshold 2
param Network.tor[*].Type 1001
param Network.agg[*].Type 1002
param Network.rack[*].host[*].flow_appearance "\"\""
param Network.rack[*].host[*].flow_size "\"\""
param Network.propagation_time "\"\""
param Network.processing_time_on_data_packet_in_sw "\"\""
param Network.processing_time_on_data_packet_in_controller "\"\""
param Network.insertion_delay "\"\""
param Network.eviction_delay "\"\""
param Network.elephant_table_size "\"\""
param Network.flush_elephant_time "\"\""
param Network.check_for_elephant_time "\"\""
param Network.elephant_sample_rx "\"\""
param Network.already_requested_threshold "\"\""
param Network.cache_percentage "\"\""
param Network.eviction_sample_size "\"\""
param Network.inter_arrival_time_between_packets "\"\""
param Network.inter_arrival_time_between_flowlets "\"\""
param Network.inter_arrival_time_between_flows "\"\""
param Network.large_flow "\"\""
param Network.last_flow_appearance "\"0\""
param Network.rack[*].last_flow_appearance 0

scalar Network.controller "prob_of_app_A: " 0.5
scalar Network.tor[0] "max_cache_size: " 300
scalar Network.tor[0] "push threshold: " 0
scalar Network.tor[1] "max_cache_size: " 300
scalar Network.tor[1] "push threshold: " 0
scalar Network.tor[2] "max_cache_size: " 300
scalar Network.tor[2] "push threshold: " 0
scalar Network.tor[3] "max_cache_size: " 300
scalar Network.tor[3] "push threshold: " 0
scalar Network.tor[4] "max_cache_size: " 300
scalar Network.tor[4] "push threshold: " 0
scalar Network.tor[5] "max_cache_size: " 300
scalar Network.tor[5] "push threshold: " 0
scalar Network.tor[6] "max_cache_size: " 300
scalar Network.tor[6] "push threshold: " 0
scalar Network.tor[7] "max_cache_size: " 300
scalar Network.tor[7] "push threshold: " 0
scalar Network.tor[8] "max_cache_size: " 300
scalar Network.tor[8] "push threshold: " 0
scalar Network.tor[9] "max_cache_size: " 300
scalar Network.tor[9] "push threshold: " 0
scalar Network.agg[0] "max_cache_size: " 1500
scalar Network.agg[0] "push threshold: " 2500000000
scalar Network.dest "run_elephant: " 1
scalar Network.dest "run_push: " 1
scalar Network.dest "cache_size: " 2222
scalar Network.dest "scale: " 1
scalar Network.dest "total_rate_in_tor: " 1600000000000
scalar Network.controller "INTERVAL: " 0.0001
scalar Network.controller "insertion_rate: " 38933241.666667
statistic Network.controller Total_bandwidth_hist
field count 1200
field mean 411.869
field stddev 56.711847172129
field min 369.24
field max 2198.52
field sum 494242.8
field sqrsum 207419551.8912
bin	-inf	0
bin	0	0
bin	50	0
bin	100	0
bin	150	0
bin	200	0
bin	250	0
bin	300	0
bin	350	297
bin	400	898
bin	450	2
bin	500	0
bin	550	1
bin	600	0
bin	650	0
bin	700	0
bin	750	0
bin	800	0
bin	850	0
bin	900	0
bin	950	0
bin	1000	1
bin	1050	0
bin	1100	0
bin	1150	0
bin	1200	0
bin	1250	0
bin	1300	0
bin	1350	0
bin	1400	0
bin	1450	0
bin	1500	0
bin	1550	0
bin	1600	0
bin	1650	0
bin	1700	0
bin	1750	0
bin	1800	0
bin	1850	0
bin	1900	0
bin	1950	0
bin	2000	0
bin	2050	0
bin	2100	0
bin	2150	1
bin	2200	0
bin	2250	0
bin	2300	0
bin	2350	0
bin	2400	0
bin	2450	0
bin	2500	0
bin	2550	0
bin	2600	0
bin	2650	0
bin	2700	0
statistic Network.rack[0].hub "bandwidth hist"
field count 1200
field mean 310564400000
field stddev 15238957909.634
field min 262920000000
field max 355560000000
field sum 3.7267728e+014
field sqrsum 1.160187346368e+026
bin	-inf	0
bin	261000000000	1
bin	263000000000	1
bin	265000000000	2
bin	267000000000	2
bin	269000000000	0
bin	271000000000	3
bin	273000000000	5
bin	275000000000	4
bin	277000000000	2
bin	279000000000	8
bin	281000000000	8
bin	283000000000	8
bin	285000000000	14
bin	287000000000	18
bin	289000000000	24
bin	291000000000	35
bin	293000000000	39
bin	295000000000	32
bin	297000000000	57
bin	299000000000	60
bin	301000000000	56
bin	303000000000	60
bin	305000000000	77
bin	307000000000	60
bin	309000000000	65
bin	311000000000	67
bin	313000000000	46
bin	315000000000	58
bin	317000000000	49
bin	319000000000	58
bin	321000000000	48
bin	323000000000	34
bin	325000000000	25
bin	327000000000	27
bin	329000000000	24
bin	331000000000	22
bin	333000000000	22
bin	335000000000	17
bin	337000000000	15
bin	339000000000	12
bin	341000000000	9
bin	343000000000	4
bin	345000000000	12
bin	347000000000	0
bin	349000000000	3
bin	351000000000	2
bin	353000000000	4
bin	355000000000	1
bin	357000000000	0
bin	359000000000	0
bin	361000000000	0
statistic Network.rack[1].hub "bandwidth hist"
field count 1200
field mean 329652100000
field stddev 21741290685.942
field min 272760000000
field max 429120000000
field sum 3.9558252e+014
field sqrsum 1.309713562224e+026
bin	-inf	0
bin	271000000000	1
bin	273000000000	1
bin	275000000000	0
bin	277000000000	1
bin	279000000000	2
bin	281000000000	2
bin	283000000000	0
bin	285000000000	1
bin	287000000000	0
bin	289000000000	1
bin	291000000000	6
bin	293000000000	2
bin	295000000000	9
bin	297000000000	8
bin	299000000000	11
bin	301000000000	20
bin	303000000000	30
bin	305000000000	36
bin	307000000000	32
bin	309000000000	44
bin	311000000000	38
bin	313000000000	41
bin	315000000000	61
bin	317000000000	45
bin	319000000000	60
bin	321000000000	57
bin	323000000000	50
bin	325000000000	44
bin	327000000000	59
bin	329000000000	54
bin	331000000000	45
bin	333000000000	45
bin	335000000000	38
bin	337000000000	36
bin	339000000000	34
bin	341000000000	26
bin	343000000000	27
bin	345000000000	33
bin	347000000000	26
bin	349000000000	26
bin	351000000000	20
bin	353000000000	20
bin	355000000000	7
bin	357000000000	16
bin	359000000000	11
bin	361000000000	6
bin	363000000000	9
bin	365000000000	5
bin	367000000000	2
bin	369000000000	4
bin	371000000000	2
bin	373000000000	3
bin	375000000000	3
bin	377000000000	1
bin	379000000000	3
bin	381000000000	1
bin	383000000000	1
bin	385000000000	1
bin	387000000000	2
bin	389000000000	1
bin	391000000000	0
bin	393000000000	6
bin	395000000000	1
bin	397000000000	2
bin	399000000000	0
bin	401000000000	0
bin	403000000000	2
bin	405000000000	1
bin	407000000000	1
bin	409000000000	2
bin	411000000000	3
bin	413000000000	1
bin	415000000000	3
bin	417000000000	2
bin	419000000000	1
bin	421000000000	1
bin	423000000000	2
bin	425000000000	1
bin	427000000000	0
bin	429000000000	1
bin	431000000000	0
statistic Network.rack[2].hub "bandwidth hist"
field count 1200
field mean 298883400000
field stddev 15609525943.802
field min 265320000000
field max 376920000000
field sum 3.5866008e+014
field sqrsum 1.074896892576e+026
bin	-inf	0
bin	255000000000	0
bin	257000000000	0
bin	259000000000	0
bin	261000000000	0
bin	263000000000	0
bin	265000000000	1
bin	267000000000	4
bin	269000000000	4
bin	271000000000	6
bin	273000000000	9
bin	275000000000	19
bin	277000000000	32
bin	279000000000	32
bin	281000000000	40
bin	283000000000	41
bin	285000000000	59
bin	287000000000	67
bin	289000000000	75
bin	291000000000	80
bin	293000000000	76
bin	295000000000	63
bin	297000000000	80
bin	299000000000	69
bin	301000000000	61
bin	303000000000	66
bin	305000000000	49
bin	307000000000	30
bin	309000000000	36
bin	311000000000	22
bin	313000000000	23
bin	315000000000	22
bin	317000000000	16
bin	319000000000	7
bin	321000000000	12
bin	323000000000	13
bin	325000000000	11
bin	327000000000	10
bin	329000000000	11
bin	331000000000	5
bin	333000000000	9
bin	335000000000	3
bin	337000000000	6
bin	339000000000	4
bin	341000000000	3
bin	343000000000	5
bin	345000000000	5
bin	347000000000	2
bin	349000000000	3
bin	351000000000	0
bin	353000000000	3
bin	355000000000	1
bin	357000000000	1
bin	359000000000	1
bin	361000000000	0
bin	363000000000	2
bin	365000000000	0
bin	367000000000	0
bin	369000000000	0
bin	371000000000	0
bin	373000000000	0
bin	375000000000	1
bin	377000000000	0
statistic Network.rack[3].hub "bandwidth hist"
field count 1200
field mean 333871300000
field stddev 20546253155.805
field min 287880000000
field max 395880000000
field sum 4.0064556e+014
field sqrsum 1.342702100304e+026
bin	-inf	0
bin	279000000000	0
bin	281000000000	0
bin	283000000000	0
bin	285000000000	0
bin	287000000000	1
bin	289000000000	1
bin	291000000000	3
bin	293000000000	0
bin	295000000000	1
bin	297000000000	9
bin	299000000000	15
bin	301000000000	15
bin	303000000000	19
bin	305000000000	28
bin	307000000000	28
bin	309000000000	34
bin	311000000000	40
bin	313000000000	41
bin	315000000000	42
bin	317000000000	54
bin	319000000000	50
bin	321000000000	49
bin	323000000000	42
bin	325000000000	55
bin	327000000000	44
bin	329000000000	33
bin	331000000000	25
bin	333000000000	35
bin	335000000000	42
bin	337000000000	34
bin	339000000000	37
bin	341000000000	24
bin	343000000000	28
bin	345000000000	32
bin	347000000000	33
bin	349000000000	46
bin	351000000000	24
bin	353000000000	23
bin	355000000000	24
bin	357000000000	31
bin	359000000000	24
bin	361000000000	18
bin	363000000000	12
bin	365000000000	16
bin	367000000000	19
bin	369000000000	9
bin	371000000000	10
bin	373000000000	9
bin	375000000000	13
bin	377000000000	8
bin	379000000000	7
bin	381000000000	5
bin	383000000000	3
bin	385000000000	3
bin	387000000000	0
bin	389000000000	1
bin	391000000000	0
bin	393000000000	0
bin	395000000000	1
bin	397000000000	0
statistic Network.rack[4].hub "bandwidth hist"
field count 1200
field mean 325850000000
field stddev 16648915179.289
field min 283320000000
field max 377400000000
field sum 3.9102e+014
field sqrsum 1.277462134656e+026
bin	-inf	0
bin	280000000000	0
bin	282000000000	1
bin	284000000000	0
bin	286000000000	4
bin	288000000000	5
bin	290000000000	3
bin	292000000000	8
bin	294000000000	8
bin	296000000000	14
bin	298000000000	16
bin	300000000000	13
bin	302000000000	18
bin	304000000000	30
bin	306000000000	47
bin	308000000000	39
bin	310000000000	50
bin	312000000000	50
bin	314000000000	46
bin	316000000000	55
bin	318000000000	70
bin	320000000000	76
bin	322000000000	38
bin	324000000000	49
bin	326000000000	50
bin	328000000000	50
bin	330000000000	51
bin	332000000000	52
bin	334000000000	30
bin	336000000000	45
bin	338000000000	38
bin	340000000000	32
bin	342000000000	29
bin	344000000000	41
bin	346000000000	20
bin	348000000000	20
bin	350000000000	21
bin	352000000000	14
bin	354000000000	14
bin	356000000000	10
bin	358000000000	4
bin	360000000000	11
bin	362000000000	5
bin	364000000000	5
bin	366000000000	7
bin	368000000000	3
bin	370000000000	4
bin	372000000000	1
bin	374000000000	2
bin	376000000000	1
bin	378000000000	0
bin	380000000000	0
bin	382000000000	0
bin	384000000000	0
bin	386000000000	0
bin	388000000000	0
bin	390000000000	0
statistic Network.rack[5].hub "bandwidth hist"
field count 1200
field mean 320100800000
field stddev 18361922726.079
field min 269160000000
field max 381480000000
field sum 3.8412096e+014
field sqrsum 1.2336168168e+026
bin	-inf	0
bin	268000000000	1
bin	270000000000	1
bin	272000000000	0
bin	274000000000	1
bin	276000000000	1
bin	278000000000	1
bin	280000000000	1
bin	282000000000	5
bin	284000000000	8
bin	286000000000	8
bin	288000000000	10
bin	290000000000	11
bin	292000000000	23
bin	294000000000	22
bin	296000000000	26
bin	298000000000	33
bin	300000000000	43
bin	302000000000	38
bin	304000000000	43
bin	306000000000	46
bin	308000000000	45
bin	310000000000	51
bin	312000000000	55
bin	314000000000	61
bin	316000000000	60
bin	318000000000	54
bin	320000000000	54
bin	322000000000	47
bin	324000000000	51
bin	326000000000	51
bin	328000000000	34
bin	330000000000	38
bin	332000000000	26
bin	334000000000	22
bin	336000000000	24
bin	338000000000	20
bin	340000000000	12
bin	342000000000	13
bin	344000000000	29
bin	346000000000	20
bin	348000000000	17
bin	350000000000	22
bin	352000000000	16
bin	354000000000	9
bin	356000000000	10
bin	358000000000	10
bin	360000000000	10
bin	362000000000	6
bin	364000000000	4
bin	366000000000	0
bin	368000000000	1
bin	370000000000	0
bin	372000000000	1
bin	374000000000	2
bin	376000000000	1
bin	378000000000	1
bin	380000000000	1
bin	382000000000	0
bin	384000000000	0
bin	386000000000	0
bin	388000000000	0
bin	390000000000	0
bin	392000000000	0
bin	394000000000	0
bin	396000000000	0
bin	398000000000	0
bin	400000000000	0
bin	402000000000	0
statistic Network.rack[6].hub "bandwidth hist"
field count 1200
field mean 334606100000
field stddev 18286994429.412
field min 288000000000
field max 390240000000
field sum 4.0152732e+014
field sqrsum 1.347544531728e+026
bin	-inf	0
bin	288000000000	1
bin	290000000000	1
bin	292000000000	1
bin	294000000000	5
bin	296000000000	6
bin	298000000000	9
bin	300000000000	13
bin	302000000000	12
bin	304000000000	23
bin	306000000000	24
bin	308000000000	35
bin	310000000000	26
bin	312000000000	33
bin	314000000000	35
bin	316000000000	42
bin	318000000000	41
bin	320000000000	31
bin	322000000000	34
bin	324000000000	36
bin	326000000000	27
bin	328000000000	33
bin	330000000000	33
bin	332000000000	58
bin	334000000000	35
bin	336000000000	59
bin	338000000000	55
bin	340000000000	45
bin	342000000000	43
bin	344000000000	55
bin	346000000000	48
bin	348000000000	50
bin	350000000000	37
bin	352000000000	41
bin	354000000000	31
bin	356000000000	31
bin	358000000000	19
bin	360000000000	22
bin	362000000000	15
bin	364000000000	15
bin	366000000000	11
bin	368000000000	5
bin	370000000000	4
bin	372000000000	7
bin	374000000000	2
bin	376000000000	3
bin	378000000000	3
bin	380000000000	0
bin	382000000000	2
bin	384000000000	0
bin	386000000000	1
bin	388000000000	0
bin	390000000000	2
bin	392000000000	0
bin	394000000000	0
bin	396000000000	0
bin	398000000000	0
bin	400000000000	0
bin	402000000000	0
bin	404000000000	0
bin	406000000000	0
bin	408000000000	0
statistic Network.rack[7].hub "bandwidth hist"
field count 1200
field mean 316779700000
field stddev 20241342112.592
field min 263520000000
field max 393840000000
field sum 3.8013564e+014
field sqrsum 1.209104986032e+026
bin	-inf	0
bin	262000000000	1
bin	264000000000	0
bin	266000000000	0
bin	268000000000	1
bin	270000000000	2
bin	272000000000	2
bin	274000000000	2
bin	276000000000	7
bin	278000000000	6
bin	280000000000	4
bin	282000000000	12
bin	284000000000	10
bin	286000000000	18
bin	288000000000	24
bin	290000000000	20
bin	292000000000	25
bin	294000000000	25
bin	296000000000	26
bin	298000000000	40
bin	300000000000	49
bin	302000000000	41
bin	304000000000	41
bin	306000000000	64
bin	308000000000	60
bin	310000000000	42
bin	312000000000	64
bin	314000000000	54
bin	316000000000	44
bin	318000000000	44
bin	320000000000	57
bin	322000000000	37
bin	324000000000	39
bin	326000000000	46
bin	328000000000	35
bin	330000000000	25
bin	332000000000	33
bin	334000000000	12
bin	336000000000	20
bin	338000000000	30
bin	340000000000	19
bin	342000000000	14
bin	344000000000	10
bin	346000000000	16
bin	348000000000	8
bin	350000000000	4
bin	352000000000	7
bin	354000000000	4
bin	356000000000	6
bin	358000000000	8
bin	360000000000	6
bin	362000000000	4
bin	364000000000	3
bin	366000000000	4
bin	368000000000	3
bin	370000000000	2
bin	372000000000	2
bin	374000000000	1
bin	376000000000	2
bin	378000000000	1
bin	380000000000	2
bin	382000000000	3
bin	384000000000	2
bin	386000000000	3
bin	388000000000	2
bin	390000000000	0
bin	392000000000	2
bin	394000000000	0
statistic Network.rack[8].hub "bandwidth hist"
field count 1200
field mean 297679900000
field stddev 20740558517.787
field min 259800000000
field max 380640000000
field sum 3.5721588e+014
field sqrsum 1.068517621872e+026
bin	-inf	0
bin	247000000000	0
bin	249000000000	0
bin	251000000000	0
bin	253000000000	0
bin	255000000000	0
bin	257000000000	0
bin	259000000000	4
bin	261000000000	4
bin	263000000000	7
bin	265000000000	11
bin	267000000000	10
bin	269000000000	18
bin	271000000000	28
bin	273000000000	30
bin	275000000000	46
bin	277000000000	34
bin	279000000000	42
bin	281000000000	58
bin	283000000000	50
bin	285000000000	59
bin	287000000000	62
bin	289000000000	48
bin	291000000000	53
bin	293000000000	66
bin	295000000000	63
bin	297000000000	65
bin	299000000000	42
bin	301000000000	36
bin	303000000000	44
bin	305000000000	32
bin	307000000000	27
bin	309000000000	28
bin	311000000000	29
bin	313000000000	7
bin	315000000000	9
bin	317000000000	16
bin	319000000000	11
bin	321000000000	8
bin	323000000000	5
bin	325000000000	6
bin	327000000000	12
bin	329000000000	13
bin	331000000000	15
bin	333000000000	10
bin	335000000000	14
bin	337000000000	5
bin	339000000000	12
bin	341000000000	4
bin	343000000000	11
bin	345000000000	10
bin	347000000000	9
bin	349000000000	6
bin	351000000000	3
bin	353000000000	2
bin	355000000000	4
bin	357000000000	1
bin	359000000000	2
bin	361000000000	1
bin	363000000000	1
bin	365000000000	0
bin	367000000000	2
bin	369000000000	1
bin	371000000000	1
bin	373000000000	0
bin	375000000000	0
bin	377000000000	1
bin	379000000000	2
bin	381000000000	0
statistic Network.rack[9].hub "bandwidth hist"
field count 1200
field mean 297591800000
field stddev 17373614366.528
field min 251160000000
field max 376440000000
field sum 3.5711016e+014
field sqrsum 1.066349644416e+026
bin	-inf	0
bin	226000000000	0
bin	228000000000	0
bin	230000000000	0
bin	232000000000	0
bin	234000000000	0
bin	236000000000	0
bin	238000000000	0
bin	240000000000	0
bin	242000000000	0
bin	244000000000	0
bin	246000000000	0
bin	248000000000	0
bin	250000000000	1
bin	252000000000	0
bin	254000000000	1
bin	256000000000	3
bin	258000000000	0
bin	260000000000	1
bin	262000000000	1
bin	264000000000	5
bin	266000000000	9
bin	268000000000	6
bin	270000000000	22
bin	272000000000	25
bin	274000000000	17
bin	276000000000	24
bin	278000000000	30
bin	280000000000	43
bin	282000000000	51
bin	284000000000	48
bin	286000000000	57
bin	288000000000	69
bin	290000000000	68
bin	292000000000	63
bin	294000000000	66
bin	296000000000	60
bin	298000000000	68
bin	300000000000	57
bin	302000000000	56
bin	304000000000	34
bin	306000000000	49
bin	308000000000	53
bin	310000000000	33
bin	312000000000	22
bin	314000000000	31
bin	316000000000	17
bin	318000000000	13
bin	320000000000	15
bin	322000000000	10
bin	324000000000	5
bin	326000000000	4
bin	328000000000	3
bin	330000000000	6
bin	332000000000	1
bin	334000000000	4
bin	336000000000	4
bin	338000000000	4
bin	340000000000	7
bin	342000000000	3
bin	344000000000	6
bin	346000000000	5
bin	348000000000	3
bin	350000000000	1
bin	352000000000	1
bin	354000000000	3
bin	356000000000	0
bin	358000000000	1
bin	360000000000	2
bin	362000000000	1
bin	364000000000	2
bin	366000000000	2
bin	368000000000	1
bin	370000000000	2
bin	372000000000	0
bin	374000000000	0
bin	376000000000	1
bin	378000000000	0
scalar Network.tor[0] "Bandwidth: " 0
statistic Network.tor[0] "flow count"
field count 1200
field mean 624.21083333333
field stddev 13.889101431977
field min 581
field max 665
field sum 749053
field sqrsum 467798293
bin	-inf	0
bin	560	0
bin	562	0
bin	564	0
bin	566	0
bin	568	0
bin	570	0
bin	572	0
bin	574	0
bin	576	0
bin	578	0
bin	580	1
bin	582	1
bin	584	0
bin	586	0
bin	588	4
bin	590	2
bin	592	3
bin	594	5
bin	596	8
bin	598	15
bin	600	15
bin	602	17
bin	604	30
bin	606	27
bin	608	38
bin	610	50
bin	612	56
bin	614	59
bin	616	62
bin	618	60
bin	620	72
bin	622	70
bin	624	73
bin	626	63
bin	628	66
bin	630	53
bin	632	59
bin	634	37
bin	636	42
bin	638	34
bin	640	39
bin	642	35
bin	644	27
bin	646	15
bin	648	12
bin	650	13
bin	652	10
bin	654	7
bin	656	7
bin	658	3
bin	660	4
bin	662	2
bin	664	4
bin	666	0
bin	668	0
bin	670	0
bin	672	0
bin	674	0
bin	676	0
bin	678	0
bin	680	0
bin	682	0
bin	684	0
bin	686	0
statistic Network.tor[0] cache_occupancy
field count 1200
field mean 300
field stddev 0
field min 300
field max 300
field sum 360000
field sqrsum 108000000
bin	-inf	0
bin	299	0
bin	300	1200
bin	301	0
statistic Network.tor[0] activity_time_of_a_rule_A
field count 94704
field mean 0.00015337933033062
field stddev 0.00073706189211161
field min 0
field max 0.028244411663
field sum 14.525636099631
field sqrsum 0.053676306164743
bin	-inf	0
bin	-0.5	0
bin	-0.48	0
bin	-0.46	0
bin	-0.44	0
bin	-0.42	0
bin	-0.4	0
bin	-0.38	0
bin	-0.36	0
bin	-0.34	0
bin	-0.32	0
bin	-0.3	0
bin	-0.28	0
bin	-0.26	0
bin	-0.24	0
bin	-0.22	0
bin	-0.2	0
bin	-0.18	0
bin	-0.16	0
bin	-0.14	0
bin	-0.12	0
bin	-0.1	0
bin	-0.08	0
bin	-0.06	0
bin	-0.04	0
bin	-0.02	0
bin	0	94697
bin	0.02	7
bin	0.04	0
bin	0.06	0
bin	0.08	0
bin	0.1	0
bin	0.12	0
bin	0.14	0
bin	0.16	0
bin	0.18	0
bin	0.2	0
bin	0.22	0
bin	0.24	0
bin	0.26	0
bin	0.28	0
bin	0.3	0
bin	0.32	0
bin	0.34	0
bin	0.36	0
bin	0.38	0
bin	0.4	0
bin	0.42	0
bin	0.44	0
bin	0.46	0
bin	0.48	0
bin	0.5	0
statistic Network.tor[0] activity_time_of_a_rule_B
field count 340273
field mean 3.0930940753659e-005
field stddev 0.00013640592701038
field min 0
field max 0.005115482826
field sum 10.52496400307
field sqrsum 0.006656844180947
bin	-inf	0
bin	0	312224
bin	7.68e-005	6861
bin	0.0001536	5240
bin	0.0002304	4062
bin	0.0003072	2799
bin	0.000384	2114
bin	0.0004608	1652
bin	0.0005376	1258
bin	0.0006144	897
bin	0.0006912	663
bin	0.000768	529
bin	0.0008448	416
bin	0.0009216	316
bin	0.0009984	242
bin	0.0010752	180
bin	0.001152	142
bin	0.0012288	130
bin	0.0013056	104
bin	0.0013824	67
bin	0.0014592	65
bin	0.001536	42
bin	0.0016128	45
bin	0.0016896	31
bin	0.0017664	28
bin	0.0018432	31
bin	0.00192	13
bin	0.0019968	16
bin	0.0020736	10
bin	0.0021504	10
bin	0.0022272	9
bin	0.002304	5
bin	0.0023808	4
bin	0.0024576	10
bin	0.0025344	8
bin	0.0026112	2
bin	0.002688	7
bin	0.0027648	4
bin	0.0028416	1
bin	0.0029184	7
bin	0.0029952	5
bin	0.003072	0
bin	0.0031488	5
bin	0.0032256	0
bin	0.0033024	2
bin	0.0033792	2
bin	0.003456	3
bin	0.0035328	3
bin	0.0036096	0
bin	0.0036864	1
bin	0.0037632	2
bin	0.00384	2
bin	0.0039168	0
bin	0.0039936	0
bin	0.0040704	0
bin	0.0041472	0
bin	0.004224	1
bin	0.0043008	1
bin	0.0043776	0
bin	0.0044544	0
bin	0.0045312	0
bin	0.004608	0
bin	0.0046848	0
bin	0.0047616	0
bin	0.0048384	1
bin	0.0049152	0
bin	0.004992	0
bin	0.0050688	1
bin	0.0051456	0
statistic Network.tor[0] bandwidth_histogram
field count 1200
field mean 310.5619
field stddev 15.249644239503
field min 262.68
field max 357.48
field sum 372674.28
field sqrsum 116017261.9056
bin	-inf	0
bin	262	1
bin	264	3
bin	266	1
bin	268	1
bin	270	1
bin	272	4
bin	274	4
bin	276	3
bin	278	6
bin	280	9
bin	282	7
bin	284	14
bin	286	15
bin	288	20
bin	290	33
bin	292	29
bin	294	34
bin	296	49
bin	298	62
bin	300	54
bin	302	60
bin	304	63
bin	306	68
bin	308	70
bin	310	58
bin	312	62
bin	314	56
bin	316	47
bin	318	59
bin	320	49
bin	322	47
bin	324	23
bin	326	35
bin	328	19
bin	330	19
bin	332	22
bin	334	25
bin	336	16
bin	338	13
bin	340	8
bin	342	8
bin	344	7
bin	346	6
bin	348	0
bin	350	5
bin	352	2
bin	354	2
bin	356	1
bin	358	0
bin	360	0
bin	362	0
scalar Network.tor[0] "cache_content_by_app: " 0.52719665271967
scalar Network.tor[1] "Bandwidth: " 0
statistic Network.tor[1] "flow count"
field count 1200
field mean 631.77666666667
field stddev 18.879101477985
field min 572
field max 687
field sum 758132
field sqrsum 479397456
bin	-inf	0
bin	571	1
bin	573	0
bin	575	0
bin	577	2
bin	579	0
bin	581	1
bin	583	2
bin	585	3
bin	587	3
bin	589	4
bin	591	6
bin	593	4
bin	595	7
bin	597	13
bin	599	13
bin	601	13
bin	603	22
bin	605	25
bin	607	26
bin	609	27
bin	611	26
bin	613	35
bin	615	34
bin	617	36
bin	619	37
bin	621	33
bin	623	38
bin	625	51
bin	627	48
bin	629	40
bin	631	55
bin	633	53
bin	635	53
bin	637	48
bin	639	46
bin	641	41
bin	643	36
bin	645	40
bin	647	49
bin	649	27
bin	651	26
bin	653	33
bin	655	26
bin	657	18
bin	659	25
bin	661	19
bin	663	11
bin	665	10
bin	667	13
bin	669	6
bin	671	5
bin	673	1
bin	675	1
bin	677	2
bin	679	4
bin	681	0
bin	683	0
bin	685	1
bin	687	1
bin	689	0
bin	691	0
bin	693	0
bin	695	0
bin	697	0
bin	699	0
bin	701	0
bin	703	0
statistic Network.tor[1] cache_occupancy
field count 1200
field mean 300
field stddev 0
field min 300
field max 300
field sum 360000
field sqrsum 108000000
bin	-inf	0
bin	299	0
bin	300	1200
bin	301	0
statistic Network.tor[1] activity_time_of_a_rule_A
field count 97515
field mean 0.00016224174144207
field stddev 0.00070671907886784
field min 0
field max 0.031496964496
field sum 15.821003416723
field sqrsum 0.051270375474172
bin	-inf	0
bin	-0.5	0
bin	-0.48	0
bin	-0.46	0
bin	-0.44	0
bin	-0.42	0
bin	-0.4	0
bin	-0.38	0
bin	-0.36	0
bin	-0.34	0
bin	-0.32	0
bin	-0.3	0
bin	-0.28	0
bin	-0.26	0
bin	-0.24	0
bin	-0.22	0
bin	-0.2	0
bin	-0.18	0
bin	-0.16	0
bin	-0.14	0
bin	-0.12	0
bin	-0.1	0
bin	-0.08	0
bin	-0.06	0
bin	-0.04	0
bin	-0.02	0
bin	0	97509
bin	0.02	6
bin	0.04	0
bin	0.06	0
bin	0.08	0
bin	0.1	0
bin	0.12	0
bin	0.14	0
bin	0.16	0
bin	0.18	0
bin	0.2	0
bin	0.22	0
bin	0.24	0
bin	0.26	0
bin	0.28	0
bin	0.3	0
bin	0.32	0
bin	0.34	0
bin	0.36	0
bin	0.38	0
bin	0.4	0
bin	0.42	0
bin	0.44	0
bin	0.46	0
bin	0.48	0
bin	0.5	0
statistic Network.tor[1] activity_time_of_a_rule_B
field count 340799
field mean 2.7472923125047e-005
field stddev 0.00012436322777763
field min 0
field max 0.004863196974
field sum 9.362744728093
field sqrsum 0.0055280762275804
bin	-inf	0
bin	0	317187
bin	0.0001008	7776
bin	0.0002016	5076
bin	0.0003024	3436
bin	0.0004032	2352
bin	0.000504	1522
bin	0.0006048	1066
bin	0.0007056	691
bin	0.0008064	463
bin	0.0009072	315
bin	0.001008	223
bin	0.0011088	161
bin	0.0012096	112
bin	0.0013104	89
bin	0.0014112	67
bin	0.001512	42
bin	0.0016128	42
bin	0.0017136	36
bin	0.0018144	31
bin	0.0019152	16
bin	0.002016	14
bin	0.0021168	20
bin	0.0022176	7
bin	0.0023184	14
bin	0.0024192	4
bin	0.00252	4
bin	0.0026208	5
bin	0.0027216	3
bin	0.0028224	2
bin	0.0029232	3
bin	0.003024	1
bin	0.0031248	4
bin	0.0032256	5
bin	0.0033264	2
bin	0.0034272	2
bin	0.003528	1
bin	0.0036288	1
bin	0.0037296	0
bin	0.0038304	0
bin	0.0039312	0
bin	0.004032	1
bin	0.0041328	0
bin	0.0042336	0
bin	0.0043344	1
bin	0.0044352	0
bin	0.004536	0
bin	0.0046368	0
bin	0.0047376	1
bin	0.0048384	1
bin	0.0049392	0
statistic Network.tor[1] bandwidth_histogram
field count 1200
field mean 329.6489
field stddev 21.731388109083
field min 271.44
field max 428.52
field sum 395578.68
field sqrsum 130968308.3472
bin	-inf	0
bin	270	1
bin	272	0
bin	274	1
bin	276	1
bin	278	1
bin	280	2
bin	282	1
bin	284	0
bin	286	1
bin	288	1
bin	290	5
bin	292	1
bin	294	5
bin	296	11
bin	298	10
bin	300	19
bin	302	21
bin	304	29
bin	306	34
bin	308	39
bin	310	38
bin	312	41
bin	314	55
bin	316	48
bin	318	54
bin	320	59
bin	322	53
bin	324	59
bin	326	40
bin	328	61
bin	330	53
bin	332	47
bin	334	31
bin	336	37
bin	338	42
bin	340	28
bin	342	27
bin	344	31
bin	346	24
bin	348	24
bin	350	29
bin	352	19
bin	354	13
bin	356	14
bin	358	9
bin	360	12
bin	362	4
bin	364	8
bin	366	5
bin	368	1
bin	370	3
bin	372	5
bin	374	1
bin	376	2
bin	378	2
bin	380	2
bin	382	2
bin	384	1
bin	386	0
bin	388	3
bin	390	0
bin	392	4
bin	394	3
bin	396	0
bin	398	2
bin	400	0
bin	402	0
bin	404	1
bin	406	3
bin	408	0
bin	410	3
bin	412	3
bin	414	2
bin	416	2
bin	418	1
bin	420	2
bin	422	1
bin	424	2
bin	426	0
bin	428	1
bin	430	0
scalar Network.tor[1] "cache_content_by_app: " 0.575
scalar Network.tor[2] "Bandwidth: " 0
statistic Network.tor[2] "flow count"
field count 1200
field mean 607.27083333333
field stddev 18.312070497639
field min 558
field max 651
field sum 728725
field sqrsum 442935501
bin	-inf	0
bin	558	1
bin	560	2
bin	562	3
bin	564	4
bin	566	7
bin	568	5
bin	570	9
bin	572	11
bin	574	13
bin	576	23
bin	578	15
bin	580	19
bin	582	24
bin	584	27
bin	586	28
bin	588	33
bin	590	35
bin	592	43
bin	594	32
bin	596	38
bin	598	32
bin	600	47
bin	602	38
bin	604	45
bin	606	36
bin	608	48
bin	610	50
bin	612	58
bin	614	46
bin	616	52
bin	618	46
bin	620	25
bin	622	49
bin	624	45
bin	626	38
bin	628	41
bin	630	22
bin	632	30
bin	634	19
bin	636	17
bin	638	17
bin	640	6
bin	642	8
bin	644	3
bin	646	5
bin	648	2
bin	650	3
bin	652	0
bin	654	0
bin	656	0
bin	658	0
bin	660	0
bin	662	0
bin	664	0
bin	666	0
bin	668	0
statistic Network.tor[2] cache_occupancy
field count 1200
field mean 300
field stddev 0
field min 300
field max 300
field sum 360000
field sqrsum 108000000
bin	-inf	0
bin	299	0
bin	300	1200
bin	301	0
statistic Network.tor[2] activity_time_of_a_rule_A
field count 92722
field mean 0.00014719396598009
field stddev 0.00075638089932514
field min 0
field max 0.028574873044
field sum 13.648118913606
field sqrsum 0.055055723517308
bin	-inf	0
bin	-0.5	0
bin	-0.48	0
bin	-0.46	0
bin	-0.44	0
bin	-0.42	0
bin	-0.4	0
bin	-0.38	0
bin	-0.36	0
bin	-0.34	0
bin	-0.32	0
bin	-0.3	0
bin	-0.28	0
bin	-0.26	0
bin	-0.24	0
bin	-0.22	0
bin	-0.2	0
bin	-0.18	0
bin	-0.16	0
bin	-0.14	0
bin	-0.12	0
bin	-0.1	0
bin	-0.08	0
bin	-0.06	0
bin	-0.04	0
bin	-0.02	0
bin	0	92717
bin	0.02	5
bin	0.04	0
bin	0.06	0
bin	0.08	0
bin	0.1	0
bin	0.12	0
bin	0.14	0
bin	0.16	0
bin	0.18	0
bin	0.2	0
bin	0.22	0
bin	0.24	0
bin	0.26	0
bin	0.28	0
bin	0.3	0
bin	0.32	0
bin	0.34	0
bin	0.36	0
bin	0.38	0
bin	0.4	0
bin	0.42	0
bin	0.44	0
bin	0.46	0
bin	0.48	0
bin	0.5	0
statistic Network.tor[2] activity_time_of_a_rule_B
field count 338490
field mean 3.3395677136728e-005
field stddev 0.00014776760332404
field min 0
field max 0.010254608908
field sum 11.304102754011
field sqrsum 0.0077685050424193
bin	-inf	0
bin	0	319410
bin	0.000192	9195
bin	0.000384	4555
bin	0.000576	2400
bin	0.000768	1247
bin	0.00096	701
bin	0.001152	344
bin	0.001344	199
bin	0.001536	136
bin	0.001728	106
bin	0.00192	52
bin	0.002112	38
bin	0.002304	29
bin	0.002496	24
bin	0.002688	12
bin	0.00288	10
bin	0.003072	4
bin	0.003264	9
bin	0.003456	5
bin	0.003648	6
bin	0.00384	2
bin	0.004032	1
bin	0.004224	3
bin	0.004416	1
bin	0.004608	0
bin	0.0048	0
bin	0.004992	0
bin	0.005184	0
bin	0.005376	0
bin	0.005568	0
bin	0.00576	0
bin	0.005952	0
bin	0.006144	0
bin	0.006336	0
bin	0.006528	0
bin	0.00672	0
bin	0.006912	0
bin	0.007104	0
bin	0.007296	0
bin	0.007488	0
bin	0.00768	0
bin	0.007872	0
bin	0.008064	0
bin	0.008256	0
bin	0.008448	0
bin	0.00864	0
bin	0.008832	0
bin	0.009024	0
bin	0.009216	0
bin	0.009408	0
bin	0.0096	0
bin	0.009792	0
bin	0.009984	0
bin	0.010176	1
bin	0.010368	0
statistic Network.tor[2] bandwidth_histogram
field count 1200
field mean 298.8806
field stddev 15.606898315695
field min 263.64
field max 377.16
field sum 358656.72
field sqrsum 107487582.4224
bin	-inf	0
bin	253	0
bin	255	0
bin	257	0
bin	259	0
bin	261	0
bin	263	1
bin	265	0
bin	267	4
bin	269	3
bin	271	7
bin	273	10
bin	275	20
bin	277	28
bin	279	34
bin	281	38
bin	283	46
bin	285	61
bin	287	66
bin	289	70
bin	291	69
bin	293	92
bin	295	59
bin	297	78
bin	299	70
bin	301	52
bin	303	83
bin	305	47
bin	307	35
bin	309	26
bin	311	20
bin	313	21
bin	315	27
bin	317	13
bin	319	11
bin	321	11
bin	323	10
bin	325	14
bin	327	9
bin	329	9
bin	331	5
bin	333	7
bin	335	9
bin	337	5
bin	339	3
bin	341	4
bin	343	4
bin	345	5
bin	347	3
bin	349	1
bin	351	3
bin	353	1
bin	355	1
bin	357	1
bin	359	1
bin	361	0
bin	363	2
bin	365	0
bin	367	0
bin	369	0
bin	371	0
bin	373	0
bin	375	0
bin	377	1
bin	379	0
scalar Network.tor[2] "cache_content_by_app: " 0.5301724137931
scalar Network.tor[3] "Bandwidth: " 0
statistic Network.tor[3] "flow count"
field count 1200
field mean 635.13916666667
field stddev 14.093449556652
field min 587
field max 675
field sum 762167
field sqrsum 484320265
bin	-inf	0
bin	570	0
bin	572	0
bin	574	0
bin	576	0
bin	578	0
bin	580	0
bin	582	0
bin	584	0
bin	586	1
bin	588	0
bin	590	0
bin	592	1
bin	594	0
bin	596	0
bin	598	3
bin	600	1
bin	602	3
bin	604	10
bin	606	9
bin	608	10
bin	610	11
bin	612	25
bin	614	25
bin	616	38
bin	618	44
bin	620	33
bin	622	38
bin	624	48
bin	626	54
bin	628	59
bin	630	57
bin	632	69
bin	634	81
bin	636	69
bin	638	52
bin	640	72
bin	642	53
bin	644	51
bin	646	56
bin	648	35
bin	650	39
bin	652	30
bin	654	33
bin	656	25
bin	658	8
bin	660	15
bin	662	13
bin	664	11
bin	666	5
bin	668	4
bin	670	4
bin	672	3
bin	674	2
bin	676	0
statistic Network.tor[3] cache_occupancy
field count 1200
field mean 300
field stddev 0
field min 300
field max 300
field sum 360000
field sqrsum 108000000
bin	-inf	0
bin	299	0
bin	300	1200
bin	301	0
statistic Network.tor[3] activity_time_of_a_rule_A
field count 96607
field mean 0.00015999241489764
field stddev 0.00071605832382522
field min 0
field max 0.032450422729
field sum 15.456387226016
field sqrsum 0.052006619088354
bin	-inf	0
bin	-0.5	0
bin	-0.48	0
bin	-0.46	0
bin	-0.44	0
bin	-0.42	0
bin	-0.4	0
bin	-0.38	0
bin	-0.36	0
bin	-0.34	0
bin	-0.32	0
bin	-0.3	0
bin	-0.28	0
bin	-0.26	0
bin	-0.24	0
bin	-0.22	0
bin	-0.2	0
bin	-0.18	0
bin	-0.16	0
bin	-0.14	0
bin	-0.12	0
bin	-0.1	0
bin	-0.08	0
bin	-0.06	0
bin	-0.04	0
bin	-0.02	0
bin	0	96602
bin	0.02	5
bin	0.04	0
bin	0.06	0
bin	0.08	0
bin	0.1	0
bin	0.12	0
bin	0.14	0
bin	0.16	0
bin	0.18	0
bin	0.2	0
bin	0.22	0
bin	0.24	0
bin	0.26	0
bin	0.28	0
bin	0.3	0
bin	0.32	0
bin	0.34	0
bin	0.36	0
bin	0.38	0
bin	0.4	0
bin	0.42	0
bin	0.44	0
bin	0.46	0
bin	0.48	0
bin	0.5	0
statistic Network.tor[3] activity_time_of_a_rule_B
field count 340267
field mean 2.8431463237805e-005
field stddev 0.00012731391109313
field min 0
field max 0.004794036731
field sum 9.6742887015381
field sqrsum 0.005790368598532
bin	-inf	0
bin	-0.5	0
bin	-0.48	0
bin	-0.46	0
bin	-0.44	0
bin	-0.42	0
bin	-0.4	0
bin	-0.38	0
bin	-0.36	0
bin	-0.34	0
bin	-0.32	0
bin	-0.3	0
bin	-0.28	0
bin	-0.26	0
bin	-0.24	0
bin	-0.22	0
bin	-0.2	0
bin	-0.18	0
bin	-0.16	0
bin	-0.14	0
bin	-0.12	0
bin	-0.1	0
bin	-0.08	0
bin	-0.06	0
bin	-0.04	0
bin	-0.02	0
bin	0	340267
bin	0.02	0
bin	0.04	0
bin	0.06	0
bin	0.08	0
bin	0.1	0
bin	0.12	0
bin	0.14	0
bin	0.16	0
bin	0.18	0
bin	0.2	0
bin	0.22	0
bin	0.24	0
bin	0.26	0
bin	0.28	0
bin	0.3	0
bin	0.32	0
bin	0.34	0
bin	0.36	0
bin	0.38	0
bin	0.4	0
bin	0.42	0
bin	0.44	0
bin	0.46	0
bin	0.48	0
bin	0.5	0
statistic Network.tor[3] bandwidth_histogram
field count 1200
field mean 333.8685
field stddev 20.551754635523
field min 286.68
field max 396.48
field sum 400642.2
field sqrsum 134268237.5184
bin	-inf	0
bin	279	0
bin	281	0
bin	283	0
bin	285	1
bin	287	0
bin	289	1
bin	291	3
bin	293	0
bin	295	5
bin	297	5
bin	299	16
bin	301	12
bin	303	18
bin	305	28
bin	307	26
bin	309	43
bin	311	36
bin	313	35
bin	315	57
bin	317	44
bin	319	52
bin	321	48
bin	323	42
bin	325	52
bin	327	49
bin	329	33
bin	331	28
bin	333	30
bin	335	44
bin	337	30
bin	339	34
bin	341	33
bin	343	24
bin	345	32
bin	347	35
bin	349	40
bin	351	31
bin	353	26
bin	355	22
bin	357	28
bin	359	21
bin	361	16
bin	363	16
bin	365	18
bin	367	16
bin	369	13
bin	371	7
bin	373	8
bin	375	12
bin	377	11
bin	379	4
bin	381	7
bin	383	4
bin	385	1
bin	387	1
bin	389	1
bin	391	0
bin	393	0
bin	395	1
bin	397	0
scalar Network.tor[3] "cache_content_by_app: " 0.64435146443515
scalar Network.tor[4] "Bandwidth: " 0
statistic Network.tor[4] "flow count"
field count 1200
field mean 636.52916666667
field stddev 28.847142215199
field min 575
field max 713
field sum 763835
field sqrsum 487201013
bin	-inf	0
bin	574	2
bin	576	0
bin	578	3
bin	580	0
bin	582	1
bin	584	1
bin	586	5
bin	588	7
bin	590	9
bin	592	12
bin	594	9
bin	596	16
bin	598	8
bin	600	19
bin	602	19
bin	604	21
bin	606	24
bin	608	26
bin	610	32
bin	612	40
bin	614	39
bin	616	43
bin	618	47
bin	620	48
bin	622	49
bin	624	39
bin	626	35
bin	628	49
bin	630	38
bin	632	30
bin	634	34
bin	636	34
bin	638	32
bin	640	19
bin	642	17
bin	644	24
bin	646	16
bin	648	11
bin	650	10
bin	652	12
bin	654	10
bin	656	12
bin	658	13
bin	660	11
bin	662	12
bin	664	11
bin	666	23
bin	668	16
bin	670	13
bin	672	15
bin	674	14
bin	676	17
bin	678	14
bin	680	15
bin	682	17
bin	684	10
bin	686	16
bin	688	12
bin	690	12
bin	692	6
bin	694	13
bin	696	7
bin	698	8
bin	700	9
bin	702	5
bin	704	2
bin	706	3
bin	708	2
bin	710	1
bin	712	1
bin	714	0
bin	716	0
bin	718	0
statistic Network.tor[4] cache_occupancy
field count 1200
field mean 300
field stddev 0
field min 300
field max 300
field sum 360000
field sqrsum 108000000
bin	-inf	0
bin	299	0
bin	300	1200
bin	301	0
statistic Network.tor[4] activity_time_of_a_rule_A
field count 96341
field mean 0.00015684998290781
field stddev 0.00070189195847082
field min 0
field max 0.0288300601
field sum 15.111084203321
field sqrsum 0.04983229793941
bin	-inf	0
bin	0	87621
bin	0.000352	2514
bin	0.000704	1622
bin	0.001056	1155
bin	0.001408	799
bin	0.00176	608
bin	0.002112	437
bin	0.002464	354
bin	0.002816	221
bin	0.003168	216
bin	0.00352	140
bin	0.003872	124
bin	0.004224	82
bin	0.004576	70
bin	0.004928	54
bin	0.00528	45
bin	0.005632	36
bin	0.005984	30
bin	0.006336	25
bin	0.006688	24
bin	0.00704	22
bin	0.007392	18
bin	0.007744	12
bin	0.008096	12
bin	0.008448	10
bin	0.0088	9
bin	0.009152	9
bin	0.009504	6
bin	0.009856	15
bin	0.010208	10
bin	0.01056	4
bin	0.010912	5
bin	0.011264	3
bin	0.011616	2
bin	0.011968	4
bin	0.01232	2
bin	0.012672	1
bin	0.013024	3
bin	0.013376	0
bin	0.013728	5
bin	0.01408	2
bin	0.014432	0
bin	0.014784	0
bin	0.015136	0
bin	0.015488	0
bin	0.01584	1
bin	0.016192	0
bin	0.016544	0
bin	0.016896	0
bin	0.017248	0
bin	0.0176	1
bin	0.017952	2
bin	0.018304	1
bin	0.018656	0
bin	0.019008	0
bin	0.01936	0
bin	0.019712	0
bin	0.020064	0
bin	0.020416	1
bin	0.020768	0
bin	0.02112	0
bin	0.021472	1
bin	0.021824	0
bin	0.022176	1
bin	0.022528	0
bin	0.02288	0
bin	0.023232	0
bin	0.023584	0
bin	0.023936	0
bin	0.024288	0
bin	0.02464	0
bin	0.024992	0
bin	0.025344	1
bin	0.025696	0
bin	0.026048	0
bin	0.0264	0
bin	0.026752	0
bin	0.027104	0
bin	0.027456	0
bin	0.027808	0
bin	0.02816	0
bin	0.028512	1
bin	0.028864	0
statistic Network.tor[4] activity_time_of_a_rule_B
field count 340495
field mean 2.9125983851135e-005
field stddev 0.00012939500389174
field min 0
field max 0.005092264133
field sum 9.9172518713921
field sqrsum 0.005989763583896
bin	-inf	0
bin	0	311356
bin	6e-005	6075
bin	0.00012	4773
bin	0.00018	3601
bin	0.00024	3185
bin	0.0003	2255
bin	0.00036	1900
bin	0.00042	1428
bin	0.00048	1150
bin	0.00054	966
bin	0.0006	622
bin	0.00066	628
bin	0.00072	455
bin	0.00078	356
bin	0.00084	313
bin	0.0009	215
bin	0.00096	226
bin	0.00102	139
bin	0.00108	130
bin	0.00114	116
bin	0.0012	70
bin	0.00126	71
bin	0.00132	70
bin	0.00138	43
bin	0.00144	44
bin	0.0015	34
bin	0.00156	39
bin	0.00162	27
bin	0.00168	28
bin	0.00174	19
bin	0.0018	22
bin	0.00186	17
bin	0.00192	17
bin	0.00198	16
bin	0.00204	7
bin	0.0021	7
bin	0.00216	12
bin	0.00222	5
bin	0.00228	3
bin	0.00234	7
bin	0.0024	1
bin	0.00246	2
bin	0.00252	5
bin	0.00258	7
bin	0.00264	5
bin	0.0027	3
bin	0.00276	2
bin	0.00282	1
bin	0.00288	2
bin	0.00294	2
bin	0.003	2
bin	0.00306	0
bin	0.00312	0
bin	0.00318	2
bin	0.00324	3
bin	0.0033	0
bin	0.00336	0
bin	0.00342	2
bin	0.00348	0
bin	0.00354	1
bin	0.0036	0
bin	0.00366	0
bin	0.00372	0
bin	0.00378	1
bin	0.00384	1
bin	0.0039	1
bin	0.00396	1
bin	0.00402	0
bin	0.00408	1
bin	0.00414	0
bin	0.0042	0
bin	0.00426	0
bin	0.00432	0
bin	0.00438	0
bin	0.00444	0
bin	0.0045	0
bin	0.00456	0
bin	0.00462	1
bin	0.00468	0
bin	0.00474	1
bin	0.0048	0
bin	0.00486	0
bin	0.00492	0
bin	0.00498	0
bin	0.00504	1
bin	0.0051	0
statistic Network.tor[4] bandwidth_histogram
field count 1200
field mean 325.8473
field stddev 16.627778962858
field min 283.68
field max 376.32
field sum 391016.76
field sqrsum 127743258.6576
bin	-inf	0
bin	280	0
bin	282	1
bin	284	0
bin	286	4
bin	288	3
bin	290	5
bin	292	6
bin	294	11
bin	296	12
bin	298	13
bin	300	17
bin	302	22
bin	304	32
bin	306	36
bin	308	44
bin	310	47
bin	312	54
bin	314	49
bin	316	51
bin	318	65
bin	320	73
bin	322	48
bin	324	46
bin	326	48
bin	328	53
bin	330	54
bin	332	47
bin	334	33
bin	336	40
bin	338	47
bin	340	31
bin	342	24
bin	344	40
bin	346	24
bin	348	20
bin	350	16
bin	352	16
bin	354	17
bin	356	5
bin	358	10
bin	360	8
bin	362	5
bin	364	7
bin	366	4
bin	368	5
bin	370	3
bin	372	1
bin	374	2
bin	376	1
bin	378	0
bin	380	0
bin	382	0
bin	384	0
bin	386	0
bin	388	0
bin	390	0
scalar Network.tor[4] "cache_content_by_app: " 0.60084033613445
scalar Network.tor[5] "Bandwidth: " 0
statistic Network.tor[5] "flow count"
field count 1200
field mean 619.385
field stddev 15.539133251842
field min 569
field max 666
field sum 743262
field sqrsum 460654850
bin	-inf	0
bin	569	1
bin	571	1
bin	573	1
bin	575	2
bin	577	2
bin	579	0
bin	581	1
bin	583	4
bin	585	7
bin	587	3
bin	589	13
bin	591	12
bin	593	21
bin	595	14
bin	597	24
bin	599	33
bin	601	38
bin	603	36
bin	605	37
bin	607	67
bin	609	45
bin	611	53
bin	613	43
bin	615	49
bin	617	57
bin	619	61
bin	621	60
bin	623	57
bin	625	57
bin	627	54
bin	629	52
bin	631	44
bin	633	37
bin	635	42
bin	637	29
bin	639	36
bin	641	27
bin	643	24
bin	645	13
bin	647	17
bin	649	7
bin	651	8
bin	653	3
bin	655	1
bin	657	1
bin	659	1
bin	661	3
bin	663	1
bin	665	1
bin	667	0
statistic Network.tor[5] cache_occupancy
field count 1200
field mean 300
field stddev 0
field min 300
field max 300
field sum 360000
field sqrsum 108000000
bin	-inf	0
bin	299	0
bin	300	1200
bin	301	0
statistic Network.tor[5] activity_time_of_a_rule_A
field count 93390
field mean 0.00015386509785466
field stddev 0.00079253006335582
field min 0
field max 0.026881404636
field sum 14.369461488647
field sqrsum 0.060868953838703
bin	-inf	0
bin	0	86352
bin	0.000352	1790
bin	0.000704	1139
bin	0.001056	889
bin	0.001408	645
bin	0.00176	521
bin	0.002112	366
bin	0.002464	322
bin	0.002816	235
bin	0.003168	172
bin	0.00352	146
bin	0.003872	118
bin	0.004224	105
bin	0.004576	76
bin	0.004928	67
bin	0.00528	46
bin	0.005632	56
bin	0.005984	40
bin	0.006336	38
bin	0.006688	22
bin	0.00704	29
bin	0.007392	32
bin	0.007744	20
bin	0.008096	12
bin	0.008448	29
bin	0.0088	12
bin	0.009152	13
bin	0.009504	8
bin	0.009856	9
bin	0.010208	7
bin	0.01056	6
bin	0.010912	8
bin	0.011264	10
bin	0.011616	2
bin	0.011968	1
bin	0.01232	4
bin	0.012672	3
bin	0.013024	2
bin	0.013376	4
bin	0.013728	1
bin	0.01408	1
bin	0.014432	5
bin	0.014784	0
bin	0.015136	1
bin	0.015488	4
bin	0.01584	1
bin	0.016192	1
bin	0.016544	0
bin	0.016896	1
bin	0.017248	2
bin	0.0176	1
bin	0.017952	2
bin	0.018304	0
bin	0.018656	0
bin	0.019008	2
bin	0.01936	1
bin	0.019712	2
bin	0.020064	0
bin	0.020416	0
bin	0.020768	0
bin	0.02112	2
bin	0.021472	1
bin	0.021824	1
bin	0.022176	0
bin	0.022528	0
bin	0.02288	1
bin	0.023232	1
bin	0.023584	0
bin	0.023936	1
bin	0.024288	1
bin	0.02464	0
bin	0.024992	0
bin	0.025344	0
bin	0.025696	0
bin	0.026048	0
bin	0.0264	0
bin	0.026752	1
bin	0.027104	0
statistic Network.tor[5] activity_time_of_a_rule_B
field count 339095
field mean 3.1587569927879e-005
field stddev 0.00014173087870385
field min 0
field max 0.006227180652
field sum 10.711187024694
field sqrsum 0.0071499392380974
bin	-inf	0
bin	-0.5	0
bin	-0.48	0
bin	-0.46	0
bin	-0.44	0
bin	-0.42	0
bin	-0.4	0
bin	-0.38	0
bin	-0.36	0
bin	-0.34	0
bin	-0.32	0
bin	-0.3	0
bin	-0.28	0
bin	-0.26	0
bin	-0.24	0
bin	-0.22	0
bin	-0.2	0
bin	-0.18	0
bin	-0.16	0
bin	-0.14	0
bin	-0.12	0
bin	-0.1	0
bin	-0.08	0
bin	-0.06	0
bin	-0.04	0
bin	-0.02	0
bin	0	339095
bin	0.02	0
bin	0.04	0
bin	0.06	0
bin	0.08	0
bin	0.1	0
bin	0.12	0
bin	0.14	0
bin	0.16	0
bin	0.18	0
bin	0.2	0
bin	0.22	0
bin	0.24	0
bin	0.26	0
bin	0.28	0
bin	0.3	0
bin	0.32	0
bin	0.34	0
bin	0.36	0
bin	0.38	0
bin	0.4	0
bin	0.42	0
bin	0.44	0
bin	0.46	0
bin	0.48	0
bin	0.5	0
statistic Network.tor[5] bandwidth_histogram
field count 1200
field mean 320.0979
field stddev 18.354932539994
field min 268.92
field max 379.8
field sum 384117.48
field sqrsum 123359146.056
bin	-inf	0
bin	268	1
bin	270	1
bin	272	1
bin	274	0
bin	276	1
bin	278	1
bin	280	2
bin	282	4
bin	284	8
bin	286	6
bin	288	9
bin	290	18
bin	292	20
bin	294	23
bin	296	25
bin	298	33
bin	300	45
bin	302	39
bin	304	42
bin	306	40
bin	308	49
bin	310	45
bin	312	51
bin	314	65
bin	316	63
bin	318	52
bin	320	64
bin	322	47
bin	324	45
bin	326	47
bin	328	35
bin	330	37
bin	332	30
bin	334	24
bin	336	23
bin	338	20
bin	340	13
bin	342	12
bin	344	27
bin	346	23
bin	348	18
bin	350	16
bin	352	15
bin	354	11
bin	356	13
bin	358	10
bin	360	12
bin	362	3
bin	364	2
bin	366	2
bin	368	1
bin	370	0
bin	372	2
bin	374	1
bin	376	1
bin	378	2
bin	380	0
bin	382	0
bin	384	0
bin	386	0
bin	388	0
bin	390	0
bin	392	0
bin	394	0
bin	396	0
bin	398	0
bin	400	0
scalar Network.tor[5] "cache_content_by_app: " 0.5
scalar Network.tor[6] "Bandwidth: " 0
statistic Network.tor[6] "flow count"
field count 1200
field mean 643.8425
field stddev 15.243348061809
field min 596
field max 688
field sum 772611
field sqrsum 497718397
bin	-inf	0
bin	596	1
bin	598	0
bin	600	0
bin	602	0
bin	604	1
bin	606	4
bin	608	1
bin	610	6
bin	612	9
bin	614	6
bin	616	15
bin	618	18
bin	620	16
bin	622	29
bin	624	29
bin	626	50
bin	628	45
bin	630	46
bin	632	40
bin	634	46
bin	636	57
bin	638	52
bin	640	57
bin	642	63
bin	644	64
bin	646	73
bin	648	55
bin	650	56
bin	652	49
bin	654	36
bin	656	47
bin	658	36
bin	660	38
bin	662	29
bin	664	26
bin	666	21
bin	668	20
bin	670	12
bin	672	13
bin	674	7
bin	676	9
bin	678	6
bin	680	4
bin	682	2
bin	684	3
bin	686	1
bin	688	2
bin	690	0
bin	692	0
bin	694	0
bin	696	0
bin	698	0
bin	700	0
bin	702	0
statistic Network.tor[6] cache_occupancy
field count 1200
field mean 300
field stddev 0
field min 300
field max 300
field sum 360000
field sqrsum 108000000
bin	-inf	0
bin	299	0
bin	300	1200
bin	301	0
statistic Network.tor[6] activity_time_of_a_rule_A
field count 99547
field mean 0.00016481114167319
field stddev 0.00068194660969077
field min 0
field max 0.033108357309
field sum 16.406454720141
field sqrsum 0.048997951145085
bin	-inf	0
bin	-0.5	0
bin	-0.48	0
bin	-0.46	0
bin	-0.44	0
bin	-0.42	0
bin	-0.4	0
bin	-0.38	0
bin	-0.36	0
bin	-0.34	0
bin	-0.32	0
bin	-0.3	0
bin	-0.28	0
bin	-0.26	0
bin	-0.24	0
bin	-0.22	0
bin	-0.2	0
bin	-0.18	0
bin	-0.16	0
bin	-0.14	0
bin	-0.12	0
bin	-0.1	0
bin	-0.08	0
bin	-0.06	0
bin	-0.04	0
bin	-0.02	0
bin	0	99543
bin	0.02	4
bin	0.04	0
bin	0.06	0
bin	0.08	0
bin	0.1	0
bin	0.12	0
bin	0.14	0
bin	0.16	0
bin	0.18	0
bin	0.2	0
bin	0.22	0
bin	0.24	0
bin	0.26	0
bin	0.28	0
bin	0.3	0
bin	0.32	0
bin	0.34	0
bin	0.36	0
bin	0.38	0
bin	0.4	0
bin	0.42	0
bin	0.44	0
bin	0.46	0
bin	0.48	0
bin	0.5	0
statistic Network.tor[6] activity_time_of_a_rule_B
field count 342290
field mean 2.5655746395904e-005
field stddev 0.00011695618236569
field min 0
field max 0.004970049751
field sum 8.781705433854
field sqrsum 0.004907386384874
bin	-inf	0
bin	0	318886
bin	9.6e-005	7840
bin	0.000192	5075
bin	0.000288	3294
bin	0.000384	2289
bin	0.00048	1571
bin	0.000576	977
bin	0.000672	663
bin	0.000768	468
bin	0.000864	333
bin	0.00096	238
bin	0.001056	150
bin	0.001152	113
bin	0.001248	77
bin	0.001344	60
bin	0.00144	57
bin	0.001536	35
bin	0.001632	28
bin	0.001728	21
bin	0.001824	25
bin	0.00192	19
bin	0.002016	15
bin	0.002112	11
bin	0.002208	5
bin	0.002304	4
bin	0.0024	5
bin	0.002496	4
bin	0.002592	2
bin	0.002688	4
bin	0.002784	0
bin	0.00288	1
bin	0.002976	1
bin	0.003072	3
bin	0.003168	0
bin	0.003264	3
bin	0.00336	1
bin	0.003456	1
bin	0.003552	2
bin	0.003648	1
bin	0.003744	1
bin	0.00384	3
bin	0.003936	1
bin	0.004032	0
bin	0.004128	0
bin	0.004224	0
bin	0.00432	1
bin	0.004416	1
bin	0.004512	0
bin	0.004608	0
bin	0.004704	0
bin	0.0048	0
bin	0.004896	1
bin	0.004992	0
statistic Network.tor[6] bandwidth_histogram
field count 1200
field mean 334.6022
field stddev 18.289045249567
field min 288
field max 391.32
field sum 401522.64
field sqrsum 134751411.216
bin	-inf	0
bin	288	1
bin	290	0
bin	292	3
bin	294	6
bin	296	5
bin	298	8
bin	300	14
bin	302	15
bin	304	17
bin	306	27
bin	308	34
bin	310	29
bin	312	30
bin	314	30
bin	316	52
bin	318	32
bin	320	32
bin	322	39
bin	324	34
bin	326	22
bin	328	36
bin	330	39
bin	332	51
bin	334	46
bin	336	43
bin	338	59
bin	340	49
bin	342	46
bin	344	51
bin	346	52
bin	348	52
bin	350	27
bin	352	43
bin	354	36
bin	356	29
bin	358	20
bin	360	20
bin	362	18
bin	364	11
bin	366	13
bin	368	5
bin	370	4
bin	372	7
bin	374	2
bin	376	2
bin	378	4
bin	380	0
bin	382	2
bin	384	0
bin	386	1
bin	388	0
bin	390	2
bin	392	0
bin	394	0
bin	396	0
bin	398	0
bin	400	0
bin	402	0
bin	404	0
bin	406	0
bin	408	0
bin	410	0
scalar Network.tor[6] "cache_content_by_app: " 0.60251046025105
scalar Network.tor[7] "Bandwidth: " 0
statistic Network.tor[7] "flow count"
field count 1200
field mean 639.24583333333
field stddev 17.025283635659
field min 590
field max 686
field sum 767095
field sqrsum 490709825
bin	-inf	0
bin	590	2
bin	592	2
bin	594	6
bin	596	1
bin	598	1
bin	600	2
bin	602	10
bin	604	8
bin	606	8
bin	608	16
bin	610	8
bin	612	24
bin	614	21
bin	616	21
bin	618	34
bin	620	32
bin	622	33
bin	624	41
bin	626	30
bin	628	46
bin	630	40
bin	632	55
bin	634	45
bin	636	46
bin	638	49
bin	640	64
bin	642	58
bin	644	39
bin	646	47
bin	648	51
bin	650	52
bin	652	57
bin	654	50
bin	656	31
bin	658	35
bin	660	19
bin	662	33
bin	664	14
bin	666	18
bin	668	15
bin	670	3
bin	672	15
bin	674	10
bin	676	3
bin	678	3
bin	680	1
bin	682	0
bin	684	0
bin	686	1
bin	688	0
statistic Network.tor[7] cache_occupancy
field count 1200
field mean 300
field stddev 0
field min 300
field max 300
field sum 360000
field sqrsum 108000000
bin	-inf	0
bin	299	0
bin	300	1200
bin	301	0
statistic Network.tor[7] activity_time_of_a_rule_A
field count 96608
field mean 0.00015493668122208
field stddev 0.00069209629822349
field min 0
field max 0.031912802647
field sum 14.968122899503
field sqrsum 0.048593602096191
bin	-inf	0
bin	-0.5	0
bin	-0.48	0
bin	-0.46	0
bin	-0.44	0
bin	-0.42	0
bin	-0.4	0
bin	-0.38	0
bin	-0.36	0
bin	-0.34	0
bin	-0.32	0
bin	-0.3	0
bin	-0.28	0
bin	-0.26	0
bin	-0.24	0
bin	-0.22	0
bin	-0.2	0
bin	-0.18	0
bin	-0.16	0
bin	-0.14	0
bin	-0.12	0
bin	-0.1	0
bin	-0.08	0
bin	-0.06	0
bin	-0.04	0
bin	-0.02	0
bin	0	96603
bin	0.02	5
bin	0.04	0
bin	0.06	0
bin	0.08	0
bin	0.1	0
bin	0.12	0
bin	0.14	0
bin	0.16	0
bin	0.18	0
bin	0.2	0
bin	0.22	0
bin	0.24	0
bin	0.26	0
bin	0.28	0
bin	0.3	0
bin	0.32	0
bin	0.34	0
bin	0.36	0
bin	0.38	0
bin	0.4	0
bin	0.42	0
bin	0.44	0
bin	0.46	0
bin	0.48	0
bin	0.5	0
statistic Network.tor[7] activity_time_of_a_rule_B
field count 341362
field mean 2.9359229511683e-005
field stddev 0.00012858083720628
field min 0
field max 0.00503051105
field sum 10.022125304567
field sqrsum 0.0059379741100175
bin	-inf	0
bin	0	315700
bin	9.6e-005	8084
bin	0.000192	5495
bin	0.000288	3605
bin	0.000384	2557
bin	0.00048	1691
bin	0.000576	1182
bin	0.000672	857
bin	0.000768	595
bin	0.000864	411
bin	0.00096	278
bin	0.001056	221
bin	0.001152	144
bin	0.001248	115
bin	0.001344	89
bin	0.00144	59
bin	0.001536	55
bin	0.001632	41
bin	0.001728	42
bin	0.001824	31
bin	0.00192	20
bin	0.002016	16
bin	0.002112	19
bin	0.002208	8
bin	0.002304	8
bin	0.0024	5
bin	0.002496	5
bin	0.002592	4
bin	0.002688	3
bin	0.002784	2
bin	0.00288	3
bin	0.002976	6
bin	0.003072	2
bin	0.003168	0
bin	0.003264	0
bin	0.00336	0
bin	0.003456	1
bin	0.003552	1
bin	0.003648	2
bin	0.003744	1
bin	0.00384	0
bin	0.003936	1
bin	0.004032	0
bin	0.004128	0
bin	0.004224	0
bin	0.00432	1
bin	0.004416	0
bin	0.004512	1
bin	0.004608	0
bin	0.004704	0
bin	0.0048	0
bin	0.004896	0
bin	0.004992	1
bin	0.005088	0
statistic Network.tor[7] bandwidth_histogram
field count 1200
field mean 316.7773
field stddev 20.247581135244
field min 262.92
field max 394.08
field sum 380132.76
field sqrsum 120908976.84
bin	-inf	0
bin	262	1
bin	264	0
bin	266	0
bin	268	1
bin	270	2
bin	272	1
bin	274	3
bin	276	7
bin	278	5
bin	280	8
bin	282	13
bin	284	10
bin	286	12
bin	288	29
bin	290	18
bin	292	20
bin	294	28
bin	296	32
bin	298	44
bin	300	41
bin	302	32
bin	304	53
bin	306	60
bin	308	55
bin	310	49
bin	312	60
bin	314	57
bin	316	41
bin	318	56
bin	320	44
bin	322	34
bin	324	46
bin	326	49
bin	328	26
bin	330	29
bin	332	30
bin	334	19
bin	336	21
bin	338	23
bin	340	23
bin	342	15
bin	344	12
bin	346	9
bin	348	8
bin	350	7
bin	352	8
bin	354	4
bin	356	5
bin	358	7
bin	360	7
bin	362	3
bin	364	5
bin	366	2
bin	368	3
bin	370	4
bin	372	1
bin	374	1
bin	376	2
bin	378	2
bin	380	2
bin	382	3
bin	384	2
bin	386	2
bin	388	2
bin	390	0
bin	392	1
bin	394	1
bin	396	0
scalar Network.tor[7] "cache_content_by_app: " 0.54237288135593
scalar Network.tor[8] "Bandwidth: " 0
statistic Network.tor[8] "flow count"
field count 1200
field mean 609.27083333333
field stddev 18.035757717266
field min 547
field max 652
field sum 731125
field sqrsum 445843159
bin	-inf	0
bin	540	0
bin	542	0
bin	544	0
bin	546	1
bin	548	0
bin	550	0
bin	552	0
bin	554	1
bin	556	4
bin	558	3
bin	560	1
bin	562	3
bin	564	3
bin	566	3
bin	568	8
bin	570	2
bin	572	11
bin	574	16
bin	576	11
bin	578	13
bin	580	16
bin	582	25
bin	584	25
bin	586	19
bin	588	21
bin	590	26
bin	592	26
bin	594	33
bin	596	29
bin	598	25
bin	600	45
bin	602	49
bin	604	40
bin	606	55
bin	608	33
bin	610	43
bin	612	58
bin	614	62
bin	616	49
bin	618	42
bin	620	57
bin	622	65
bin	624	46
bin	626	48
bin	628	45
bin	630	40
bin	632	20
bin	634	22
bin	636	16
bin	638	16
bin	640	9
bin	642	3
bin	644	2
bin	646	6
bin	648	3
bin	650	0
bin	652	1
bin	654	0
statistic Network.tor[8] cache_occupancy
field count 1200
field mean 300
field stddev 0
field min 300
field max 300
field sum 360000
field sqrsum 108000000
bin	-inf	0
bin	299	0
bin	300	1200
bin	301	0
statistic Network.tor[8] activity_time_of_a_rule_A
field count 92744
field mean 0.00014682696597934
field stddev 0.00076588334873532
field min 0
field max 0.024249774093
field sum 13.617320132788
field sqrsum 0.056400328692684
bin	-inf	0
bin	-0.5	0
bin	-0.48	0
bin	-0.46	0
bin	-0.44	0
bin	-0.42	0
bin	-0.4	0
bin	-0.38	0
bin	-0.36	0
bin	-0.34	0
bin	-0.32	0
bin	-0.3	0
bin	-0.28	0
bin	-0.26	0
bin	-0.24	0
bin	-0.22	0
bin	-0.2	0
bin	-0.18	0
bin	-0.16	0
bin	-0.14	0
bin	-0.12	0
bin	-0.1	0
bin	-0.08	0
bin	-0.06	0
bin	-0.04	0
bin	-0.02	0
bin	0	92737
bin	0.02	7
bin	0.04	0
bin	0.06	0
bin	0.08	0
bin	0.1	0
bin	0.12	0
bin	0.14	0
bin	0.16	0
bin	0.18	0
bin	0.2	0
bin	0.22	0
bin	0.24	0
bin	0.26	0
bin	0.28	0
bin	0.3	0
bin	0.32	0
bin	0.34	0
bin	0.36	0
bin	0.38	0
bin	0.4	0
bin	0.42	0
bin	0.44	0
bin	0.46	0
bin	0.48	0
bin	0.5	0
statistic Network.tor[8] activity_time_of_a_rule_B
field count 338549
field mean 3.3464298525688e-005
field stddev 0.00014615537788579
field min 0
field max 0.005445734398
field sum 11.329304801573
field sqrsum 0.007610984618055
bin	-inf	0
bin	-0.5	0
bin	-0.48	0
bin	-0.46	0
bin	-0.44	0
bin	-0.42	0
bin	-0.4	0
bin	-0.38	0
bin	-0.36	0
bin	-0.34	0
bin	-0.32	0
bin	-0.3	0
bin	-0.28	0
bin	-0.26	0
bin	-0.24	0
bin	-0.22	0
bin	-0.2	0
bin	-0.18	0
bin	-0.16	0
bin	-0.14	0
bin	-0.12	0
bin	-0.1	0
bin	-0.08	0
bin	-0.06	0
bin	-0.04	0
bin	-0.02	0
bin	0	338549
bin	0.02	0
bin	0.04	0
bin	0.06	0
bin	0.08	0
bin	0.1	0
bin	0.12	0
bin	0.14	0
bin	0.16	0
bin	0.18	0
bin	0.2	0
bin	0.22	0
bin	0.24	0
bin	0.26	0
bin	0.28	0
bin	0.3	0
bin	0.32	0
bin	0.34	0
bin	0.36	0
bin	0.38	0
bin	0.4	0
bin	0.42	0
bin	0.44	0
bin	0.46	0
bin	0.48	0
bin	0.5	0
statistic Network.tor[8] bandwidth_histogram
field count 1200
field mean 297.6782
field stddev 20.739843193066
field min 260.16
field max 380.52
field sum 357213.84
field sqrsum 106850512.08
bin	-inf	0
bin	247	0
bin	249	0
bin	251	0
bin	253	0
bin	255	0
bin	257	0
bin	259	4
bin	261	2
bin	263	12
bin	265	8
bin	267	13
bin	269	19
bin	271	22
bin	273	31
bin	275	46
bin	277	35
bin	279	42
bin	281	53
bin	283	57
bin	285	57
bin	287	57
bin	289	56
bin	291	46
bin	293	75
bin	295	57
bin	297	62
bin	299	48
bin	301	35
bin	303	41
bin	305	30
bin	307	32
bin	309	29
bin	311	23
bin	313	15
bin	315	4
bin	317	16
bin	319	13
bin	321	5
bin	323	4
bin	325	12
bin	327	9
bin	329	16
bin	331	11
bin	333	11
bin	335	10
bin	337	11
bin	339	10
bin	341	7
bin	343	8
bin	345	13
bin	347	3
bin	349	10
bin	351	2
bin	353	0
bin	355	6
bin	357	1
bin	359	2
bin	361	2
bin	363	0
bin	365	0
bin	367	2
bin	369	2
bin	371	0
bin	373	0
bin	375	0
bin	377	0
bin	379	3
bin	381	0
scalar Network.tor[8] "cache_content_by_app: " 0.51694915254237
scalar Network.tor[9] "Bandwidth: " 0
statistic Network.tor[9] "flow count"
field count 1200
field mean 621.88666666667
field stddev 21.52389882757
field min 576
field max 686
field sum 746264
field sqrsum 464647102
bin	-inf	0
bin	570	0
bin	572	0
bin	574	0
bin	576	1
bin	578	3
bin	580	4
bin	582	6
bin	584	11
bin	586	10
bin	588	18
bin	590	16
bin	592	21
bin	594	33
bin	596	22
bin	598	33
bin	600	41
bin	602	44
bin	604	43
bin	606	45
bin	608	50
bin	610	43
bin	612	42
bin	614	41
bin	616	46
bin	618	47
bin	620	34
bin	622	36
bin	624	31
bin	626	28
bin	628	35
bin	630	22
bin	632	37
bin	634	26
bin	636	19
bin	638	33
bin	640	19
bin	642	26
bin	644	23
bin	646	34
bin	648	22
bin	650	25
bin	652	24
bin	654	13
bin	656	17
bin	658	13
bin	660	14
bin	662	10
bin	664	13
bin	666	4
bin	668	7
bin	670	7
bin	672	3
bin	674	1
bin	676	1
bin	678	1
bin	680	1
bin	682	0
bin	684	0
bin	686	1
bin	688	0
statistic Network.tor[9] cache_occupancy
field count 1200
field mean 300
field stddev 0
field min 300
field max 300
field sum 360000
field sqrsum 108000000
bin	-inf	0
bin	299	0
bin	300	1200
bin	301	0
statistic Network.tor[9] activity_time_of_a_rule_A
field count 94270
field mean 0.00014864769644926
field stddev 0.00068704268069609
field min 0
field max 0.021700047214
field sum 14.013018344272
field sqrsum 0.046580576972927
bin	-inf	0
bin	-0.5	0
bin	-0.48	0
bin	-0.46	0
bin	-0.44	0
bin	-0.42	0
bin	-0.4	0
bin	-0.38	0
bin	-0.36	0
bin	-0.34	0
bin	-0.32	0
bin	-0.3	0
bin	-0.28	0
bin	-0.26	0
bin	-0.24	0
bin	-0.22	0
bin	-0.2	0
bin	-0.18	0
bin	-0.16	0
bin	-0.14	0
bin	-0.12	0
bin	-0.1	0
bin	-0.08	0
bin	-0.06	0
bin	-0.04	0
bin	-0.02	0
bin	0	94268
bin	0.02	2
bin	0.04	0
bin	0.06	0
bin	0.08	0
bin	0.1	0
bin	0.12	0
bin	0.14	0
bin	0.16	0
bin	0.18	0
bin	0.2	0
bin	0.22	0
bin	0.24	0
bin	0.26	0
bin	0.28	0
bin	0.3	0
bin	0.32	0
bin	0.34	0
bin	0.36	0
bin	0.38	0
bin	0.4	0
bin	0.42	0
bin	0.44	0
bin	0.46	0
bin	0.48	0
bin	0.5	0
statistic Network.tor[9] activity_time_of_a_rule_B
field count 340341
field mean 3.2205554143953e-005
field stddev 0.00013987311272431
field min 0
field max 0.006966530666
field sum 10.960870502907
field sqrsum 0.0070115786397353
bin	-inf	0
bin	-0.5	0
bin	-0.48	0
bin	-0.46	0
bin	-0.44	0
bin	-0.42	0
bin	-0.4	0
bin	-0.38	0
bin	-0.36	0
bin	-0.34	0
bin	-0.32	0
bin	-0.3	0
bin	-0.28	0
bin	-0.26	0
bin	-0.24	0
bin	-0.22	0
bin	-0.2	0
bin	-0.18	0
bin	-0.16	0
bin	-0.14	0
bin	-0.12	0
bin	-0.1	0
bin	-0.08	0
bin	-0.06	0
bin	-0.04	0
bin	-0.02	0
bin	0	340341
bin	0.02	0
bin	0.04	0
bin	0.06	0
bin	0.08	0
bin	0.1	0
bin	0.12	0
bin	0.14	0
bin	0.16	0
bin	0.18	0
bin	0.2	0
bin	0.22	0
bin	0.24	0
bin	0.26	0
bin	0.28	0
bin	0.3	0
bin	0.32	0
bin	0.34	0
bin	0.36	0
bin	0.38	0
bin	0.4	0
bin	0.42	0
bin	0.44	0
bin	0.46	0
bin	0.48	0
bin	0.5	0
statistic Network.tor[9] bandwidth_histogram
field count 1200
field mean 297.5893
field stddev 17.39016780992
field min 251.16
field max 375.72
field sum 357107.16
field sqrsum 106633868.8752
bin	-inf	0
bin	226	0
bin	228	0
bin	230	0
bin	232	0
bin	234	0
bin	236	0
bin	238	0
bin	240	0
bin	242	0
bin	244	0
bin	246	0
bin	248	0
bin	250	1
bin	252	0
bin	254	2
bin	256	2
bin	258	0
bin	260	1
bin	262	1
bin	264	4
bin	266	9
bin	268	7
bin	270	28
bin	272	17
bin	274	22
bin	276	21
bin	278	29
bin	280	43
bin	282	51
bin	284	55
bin	286	50
bin	288	67
bin	290	74
bin	292	54
bin	294	70
bin	296	61
bin	298	69
bin	300	60
bin	302	52
bin	304	38
bin	306	41
bin	308	57
bin	310	29
bin	312	31
bin	314	24
bin	316	19
bin	318	13
bin	320	16
bin	322	9
bin	324	6
bin	326	4
bin	328	3
bin	330	4
bin	332	4
bin	334	3
bin	336	3
bin	338	7
bin	340	5
bin	342	4
bin	344	7
bin	346	2
bin	348	5
bin	350	0
bin	352	1
bin	354	1
bin	356	2
bin	358	1
bin	360	2
bin	362	1
bin	364	3
bin	366	1
bin	368	1
bin	370	2
bin	372	0
bin	374	1
bin	376	0
scalar Network.tor[9] "cache_content_by_app: " 0.52719665271967
scalar Network.agg[0] "Bandwidth: " 0
statistic Network.agg[0] "flow count"
field count 1200
field mean 3476.8208333333
field stddev 21.50431962282
field min 3411
field max 3541
field sum 4172185
field sqrsum 14506494189
bin	-inf	0
bin	3408	0
bin	3410	1
bin	3412	1
bin	3414	0
bin	3416	0
bin	3418	0
bin	3420	2
bin	3422	2
bin	3424	4
bin	3426	1
bin	3428	0
bin	3430	7
bin	3432	5
bin	3434	5
bin	3436	8
bin	3438	9
bin	3440	14
bin	3442	18
bin	3444	23
bin	3446	16
bin	3448	17
bin	3450	22
bin	3452	17
bin	3454	30
bin	3456	25
bin	3458	31
bin	3460	38
bin	3462	26
bin	3464	37
bin	3466	41
bin	3468	42
bin	3470	38
bin	3472	48
bin	3474	35
bin	3476	44
bin	3478	52
bin	3480	44
bin	3482	54
bin	3484	30
bin	3486	40
bin	3488	22
bin	3490	40
bin	3492	33
bin	3494	34
bin	3496	39
bin	3498	31
bin	3500	26
bin	3502	18
bin	3504	19
bin	3506	15
bin	3508	15
bin	3510	9
bin	3512	13
bin	3514	17
bin	3516	11
bin	3518	6
bin	3520	6
bin	3522	6
bin	3524	3
bin	3526	2
bin	3528	3
bin	3530	1
bin	3532	0
bin	3534	1
bin	3536	2
bin	3538	0
bin	3540	1
bin	3542	0
statistic Network.agg[0] cache_occupancy
field count 1200
field mean 1500
field stddev 0
field min 1500
field max 1500
field sum 1800000
field sqrsum 2700000000
bin	-inf	0
bin	1499	0
bin	1500	1200
bin	1501	0
statistic Network.agg[0] activity_time_of_a_rule_A
field count 82282
field mean 0.00020580172396431
field stddev 0.00024761946622877
field min 0
field max 0.002943819885
field sum 16.933777451231
field sqrsum 0.0085300930246515
bin	-inf	0
bin	0	23122
bin	4e-005	10015
bin	8e-005	7693
bin	0.00012	6416
bin	0.00016	5305
bin	0.0002	4614
bin	0.00024	3808
bin	0.00028	3094
bin	0.00032	2740
bin	0.00036	2200
bin	0.0004	1908
bin	0.00044	1573
bin	0.00048	1410
bin	0.00052	1196
bin	0.00056	1027
bin	0.0006	880
bin	0.00064	731
bin	0.00068	623
bin	0.00072	567
bin	0.00076	463
bin	0.0008	423
bin	0.00084	323
bin	0.00088	296
bin	0.00092	285
bin	0.00096	203
bin	0.001	208
bin	0.00104	182
bin	0.00108	151
bin	0.00112	130
bin	0.00116	93
bin	0.0012	84
bin	0.00124	65
bin	0.00128	49
bin	0.00132	52
bin	0.00136	56
bin	0.0014	34
bin	0.00144	27
bin	0.00148	30
bin	0.00152	34
bin	0.00156	32
bin	0.0016	26
bin	0.00164	22
bin	0.00168	7
bin	0.00172	13
bin	0.00176	9
bin	0.0018	11
bin	0.00184	5
bin	0.00188	11
bin	0.00192	8
bin	0.00196	4
bin	0.002	1
bin	0.00204	3
bin	0.00208	0
bin	0.00212	1
bin	0.00216	3
bin	0.0022	5
bin	0.00224	3
bin	0.00228	1
bin	0.00232	0
bin	0.00236	1
bin	0.0024	2
bin	0.00244	0
bin	0.00248	0
bin	0.00252	0
bin	0.00256	1
bin	0.0026	1
bin	0.00264	0
bin	0.00268	0
bin	0.00272	1
bin	0.00276	0
bin	0.0028	0
bin	0.00284	0
bin	0.00288	0
bin	0.00292	1
bin	0.00296	0
statistic Network.agg[0] activity_time_of_a_rule_B
field count 314953
field mean 0.00034397661097043
field stddev 0.00041118371229258
field min 0
field max 0.006720065675
field sum 108.33646555497
field sqrsum 0.090514789063173
bin	-inf	0
bin	0	115223
bin	0.000128	61009
bin	0.000256	40840
bin	0.000384	27873
bin	0.000512	19279
bin	0.00064	13510
bin	0.000768	9679
bin	0.000896	6997
bin	0.001024	5141
bin	0.001152	3747
bin	0.00128	2866
bin	0.001408	2088
bin	0.001536	1536
bin	0.001664	1125
bin	0.001792	862
bin	0.00192	667
bin	0.002048	518
bin	0.002176	404
bin	0.002304	325
bin	0.002432	263
bin	0.00256	194
bin	0.002688	170
bin	0.002816	130
bin	0.002944	95
bin	0.003072	84
bin	0.0032	54
bin	0.003328	59
bin	0.003456	45
bin	0.003584	24
bin	0.003712	22
bin	0.00384	21
bin	0.003968	19
bin	0.004096	13
bin	0.004224	14
bin	0.004352	14
bin	0.00448	7
bin	0.004608	9
bin	0.004736	4
bin	0.004864	7
bin	0.004992	6
bin	0.00512	3
bin	0.005248	0
bin	0.005376	1
bin	0.005504	1
bin	0.005632	0
bin	0.00576	1
bin	0.005888	1
bin	0.006016	1
bin	0.006144	0
bin	0.006272	1
bin	0.0064	0
bin	0.006528	0
bin	0.006656	1
bin	0.006784	0
statistic Network.agg[0] bandwidth_histogram
field count 0
field mean nan
field stddev nan
field min nan
field max nan
field sum 0
field sqrsum 0
bin	-inf	0
bin	0	0
bin	1	0
scalar Network.agg[0] "cache_content_by_app: " 0.16735028712059
statistic Network.dest "miss count"
field count 31655140
field mean 0.55353184348577
field stddev 0.71228623979043
field min 0
field max 2
field sum 17522128
field sqrsum 25759344
bin	-inf	0
bin	0	18251620
bin	1	9284912
bin	2	4118608
bin	3	0
statistic Network.dest "out of order"
field count 31655140
field mean 1.0982124545966
field stddev 10.031782929255
field min -16
field max 4697
field sum 34764069
field sqrsum 3223846071
bin	-inf	0
bin	-100	6231
bin	0	31642410
bin	100	1398
bin	200	1473
bin	300	1382
bin	400	1158
bin	500	64
bin	600	65
bin	700	64
bin	800	75
bin	900	80
bin	1000	70
bin	1100	61
bin	1200	60
bin	1300	58
bin	1400	55
bin	1500	53
bin	1600	44
bin	1700	47
bin	1800	41
bin	1900	34
bin	2000	42
bin	2100	29
bin	2200	30
bin	2300	25
bin	2400	27
bin	2500	10
bin	2600	18
bin	2700	10
bin	2800	6
bin	2900	8
bin	3000	0
bin	3100	3
bin	3200	0
bin	3300	2
bin	3400	1
bin	3500	0
bin	3600	0
bin	3700	1
bin	3800	0
bin	3900	1
bin	4000	0
bin	4100	2
bin	4200	0
bin	4300	0
bin	4400	0
bin	4500	0
bin	4600	2
bin	4700	0
bin	4800	0
bin	4900	0
bin	5000	0
bin	5100	0
bin	5200	0
bin	5300	0
bin	5400	0
bin	5500	0
bin	5600	0
bin	5700	0
bin	5800	0
bin	5900	0
statistic Network.dest "bandwidth to destination"
field count 1200
field mean 3165514000000
field stddev 48559125883.924
field min 2981520000000
field max 3317520000000
field sum 3.7986168e+015
field sqrsum 1.2027401889494e+028
bin	-inf	0
bin	2925000000000	0
bin	2930000000000	0
bin	2935000000000	0
bin	2940000000000	0
bin	2945000000000	0
bin	2950000000000	0
bin	2955000000000	0
bin	2960000000000	0
bin	2965000000000	0
bin	2970000000000	0
bin	2975000000000	0
bin	2980000000000	1
bin	2985000000000	0
bin	2990000000000	0
bin	2995000000000	0
bin	3000000000000	1
bin	3005000000000	0
bin	3010000000000	1
bin	3015000000000	1
bin	3020000000000	0
bin	3025000000000	1
bin	3030000000000	0
bin	3035000000000	1
bin	3040000000000	4
bin	3045000000000	2
bin	3050000000000	4
bin	3055000000000	2
bin	3060000000000	4
bin	3065000000000	6
bin	3070000000000	7
bin	3075000000000	10
bin	3080000000000	12
bin	3085000000000	12
bin	3090000000000	11
bin	3095000000000	18
bin	3100000000000	17
bin	3105000000000	28
bin	3110000000000	28
bin	3115000000000	25
bin	3120000000000	26
bin	3125000000000	44
bin	3130000000000	40
bin	3135000000000	48
bin	3140000000000	49
bin	3145000000000	44
bin	3150000000000	53
bin	3155000000000	68
bin	3160000000000	51
bin	3165000000000	51
bin	3170000000000	43
bin	3175000000000	51
bin	3180000000000	33
bin	3185000000000	39
bin	3190000000000	40
bin	3195000000000	41
bin	3200000000000	27
bin	3205000000000	34
bin	3210000000000	40
bin	3215000000000	23
bin	3220000000000	24
bin	3225000000000	17
bin	3230000000000	24
bin	3235000000000	19
bin	3240000000000	14
bin	3245000000000	12
bin	3250000000000	12
bin	3255000000000	4
bin	3260000000000	7
bin	3265000000000	5
bin	3270000000000	2
bin	3275000000000	4
bin	3280000000000	2
bin	3285000000000	5
bin	3290000000000	1
bin	3295000000000	2
bin	3300000000000	1
bin	3305000000000	1
bin	3310000000000	0
bin	3315000000000	3
bin	3320000000000	0
statistic Network.dest miss_count_by_apps
field count 31655140
field mean 0.80341914456862
field stddev 0.8611771631881
field min 0
field max 2.5
field sum 25432345.5
field sqrsum 43909110.75
bin	-inf	0
bin	0	13583981
bin	0.05	0
bin	0.1	0
bin	0.15	0
bin	0.2	0
bin	0.25	0
bin	0.3	0
bin	0.35	0
bin	0.4	0
bin	0.45	0
bin	0.5	4667639
bin	0.55	0
bin	0.6	0
bin	0.65	0
bin	0.7	0
bin	0.75	0
bin	0.8	0
bin	0.85	0
bin	0.9	0
bin	0.95	0
bin	1	1173978
bin	1.05	0
bin	1.1	0
bin	1.15	0
bin	1.2	0
bin	1.25	0
bin	1.3	0
bin	1.35	0
bin	1.4	0
bin	1.45	0
bin	1.5	8110934
bin	1.55	0
bin	1.6	0
bin	1.65	0
bin	1.7	0
bin	1.75	0
bin	1.8	0
bin	1.85	0
bin	1.9	0
bin	1.95	0
bin	2	1076746
bin	2.05	0
bin	2.1	0
bin	2.15	0
bin	2.2	0
bin	2.25	0
bin	2.3	0
bin	2.35	0
bin	2.4	0
bin	2.45	0
bin	2.5	3041862
bin	2.55	0
bin	2.6	0
bin	2.65	0
scalar Network.dest "Simulation duration (in minutes). By chrono library: " 3.7166666666667

